<?xml version="1.0" encoding="UTF-8"?>

<net version="1.9" junctionCornerDetail="5" limitTurnSpeed="5.50" xmlns:xsi="http://www.w3.org/2001/XMLSchema-instance" xsi:noNamespaceSchemaLocation="http://sumo.dlr.de/xsd/net_file.xsd">

    <location netOffset="-587554.72,-4518359.84" convBoundary="241.55,635.45,1345.30,1797.23" origBoundary="-73.961801,40.804425,-73.936284,40.849076" projParameter="+proj=utm +zone=18 +ellps=WGS84 +datum=WGS84 +units=m +no_defs"/>

    <type id="highway.bridleway" priority="1" numLanes="1" speed="2.78" allow="pedestrian" oneway="1" width="2.00"/>
    <type id="highway.bus_guideway" priority="1" numLanes="1" speed="27.78" allow="bus" oneway="1"/>
    <type id="highway.cycleway" priority="1" numLanes="1" speed="8.33" allow="bicycle" oneway="1" width="1.00"/>
    <type id="highway.footway" priority="1" numLanes="1" speed="2.78" allow="pedestrian" oneway="1" width="2.00"/>
    <type id="highway.ford" priority="1" numLanes="1" speed="2.78" allow="army" oneway="1"/>
    <type id="highway.living_street" priority="2" numLanes="1" speed="2.78" disallow="tram rail_urban rail rail_electric rail_fast ship" oneway="1"/>
    <type id="highway.motorway" priority="14" numLanes="2" speed="39.44" allow="private emergency authority army vip passenger hov taxi bus coach delivery truck trailer motorcycle evehicle custom1 custom2" oneway="1"/>
    <type id="highway.motorway_link" priority="9" numLanes="1" speed="22.22" allow="private emergency authority army vip passenger hov taxi bus coach delivery truck trailer motorcycle evehicle custom1 custom2" oneway="1"/>
    <type id="highway.path" priority="1" numLanes="1" speed="2.78" allow="pedestrian bicycle" oneway="1" width="2.00"/>
    <type id="highway.pedestrian" priority="1" numLanes="1" speed="2.78" allow="pedestrian" oneway="1" width="2.00"/>
    <type id="highway.primary" priority="12" numLanes="2" speed="27.78" disallow="tram rail_urban rail rail_electric rail_fast ship" oneway="1"/>
    <type id="highway.primary_link" priority="7" numLanes="1" speed="22.22" disallow="tram rail_urban rail rail_electric rail_fast ship" oneway="1"/>
    <type id="highway.raceway" priority="15" numLanes="2" speed="83.33" allow="vip" oneway="1"/>
    <type id="highway.residential" priority="3" numLanes="1" speed="13.89" disallow="tram rail_urban rail rail_electric rail_fast ship" oneway="1"/>
    <type id="highway.secondary" priority="11" numLanes="2" speed="27.78" disallow="tram rail_urban rail rail_electric rail_fast ship" oneway="1"/>
    <type id="highway.secondary_link" priority="6" numLanes="1" speed="22.22" disallow="tram rail_urban rail rail_electric rail_fast ship" oneway="1"/>
    <type id="highway.service" priority="1" numLanes="1" speed="5.56" allow="pedestrian delivery bicycle" oneway="1"/>
    <type id="highway.stairs" priority="1" numLanes="1" speed="1.39" allow="pedestrian" oneway="1" width="2.00"/>
    <type id="highway.step" priority="1" numLanes="1" speed="1.39" allow="pedestrian" oneway="1" width="2.00"/>
    <type id="highway.steps" priority="1" numLanes="1" speed="1.39" allow="pedestrian" oneway="1" width="2.00"/>
    <type id="highway.tertiary" priority="10" numLanes="1" speed="22.22" disallow="tram rail_urban rail rail_electric rail_fast ship" oneway="1"/>
    <type id="highway.tertiary_link" priority="5" numLanes="1" speed="22.22" disallow="tram rail_urban rail rail_electric rail_fast ship" oneway="1"/>
    <type id="highway.track" priority="1" numLanes="1" speed="5.56" disallow="tram rail_urban rail rail_electric rail_fast ship" oneway="1"/>
    <type id="highway.trunk" priority="13" numLanes="2" speed="27.78" disallow="pedestrian bicycle tram rail_urban rail rail_electric rail_fast ship" oneway="1"/>
    <type id="highway.trunk_link" priority="8" numLanes="1" speed="22.22" disallow="pedestrian bicycle tram rail_urban rail rail_electric rail_fast ship" oneway="1"/>
    <type id="highway.unclassified" priority="4" numLanes="1" speed="13.89" disallow="tram rail_urban rail rail_electric rail_fast ship" oneway="1"/>
    <type id="highway.unsurfaced" priority="1" numLanes="1" speed="8.33" disallow="tram rail_urban rail rail_electric rail_fast ship" oneway="1"/>
    <type id="railway.highspeed" priority="21" numLanes="1" speed="69.44" allow="rail_fast" oneway="1"/>
    <type id="railway.light_rail" priority="19" numLanes="1" speed="27.78" allow="rail_urban" oneway="1"/>
    <type id="railway.preserved" priority="16" numLanes="1" speed="27.78" allow="rail" oneway="1"/>
    <type id="railway.rail" priority="20" numLanes="1" speed="44.44" allow="rail" oneway="1"/>
    <type id="railway.subway" priority="18" numLanes="1" speed="27.78" allow="rail_urban" oneway="1"/>
    <type id="railway.tram" priority="17" numLanes="1" speed="13.89" allow="tram" oneway="1"/>

    <edge id=":1_0" function="internal">
        <lane id=":1_0_0" index="0" disallow="tram rail_urban rail rail_electric rail_fast ship" speed="6.07" length="8.15" shape="242.04,943.57 241.11,941.51 241.10,939.69 242.01,938.11 243.82,936.77"/>
    </edge>
    <edge id=":1_1" function="internal">
        <lane id=":1_1_0" index="0" disallow="tram rail_urban rail rail_electric rail_fast ship" speed="3.65" length="2.64" shape="242.04,943.57 242.07,942.13 242.53,941.36 242.83,941.33"/>
    </edge>
    <edge id=":1_4" function="internal">
        <lane id=":1_4_0" index="0" disallow="tram rail_urban rail rail_electric rail_fast ship" speed="3.65" length="2.03" shape="242.83,941.33 243.42,941.27 244.74,941.86"/>
    </edge>
    <edge id=":1_2" function="internal">
        <lane id=":1_2_0" index="0" disallow="tram rail_urban rail rail_electric rail_fast ship" speed="3.90" length="2.72" shape="245.33,939.59 244.73,940.04 244.43,940.56 244.43,941.17 244.74,941.86"/>
    </edge>
    <edge id=":1_3" function="internal">
        <lane id=":1_3_0" index="0" disallow="tram rail_urban rail rail_electric rail_fast ship" speed="3.65" length="2.08" shape="245.33,939.59 243.90,939.46 243.38,939.09"/>
    </edge>
    <edge id=":1_5" function="internal">
        <lane id=":1_5_0" index="0" disallow="tram rail_urban rail rail_electric rail_fast ship" speed="3.65" length="2.59" shape="243.38,939.09 243.17,938.94 243.14,938.05 243.82,936.77"/>
    </edge>
    <edge id=":10_0" function="internal">
        <lane id=":10_0_0" index="0" speed="13.89" length="22.25" shape="678.95,1540.89 674.75,1538.41 669.53,1535.00 664.37,1531.48 660.37,1528.67"/>
    </edge>
    <edge id=":10_1" function="internal">
        <lane id=":10_1_0" index="0" disallow="tram rail_urban rail rail_electric rail_fast ship" speed="7.16" length="4.99" shape="678.95,1540.89 676.88,1539.15 676.21,1536.96"/>
    </edge>
    <edge id=":10_2" function="internal">
        <lane id=":10_2_0" index="0" disallow="tram rail_urban rail rail_electric rail_fast ship" speed="3.64" length="2.54" shape="678.95,1540.89 678.27,1539.63 678.29,1538.75 678.46,1538.62"/>
    </edge>
    <edge id=":10_9" function="internal">
        <lane id=":10_9_0" index="0" disallow="tram rail_urban rail rail_electric rail_fast ship" speed="7.16" length="7.24" shape="676.21,1536.96 676.17,1536.81 676.81,1533.87 678.82,1530.33"/>
    </edge>
    <edge id=":10_10" function="internal">
        <lane id=":10_10_0" index="0" disallow="tram rail_urban rail rail_electric rail_fast ship" speed="3.64" length="2.10" shape="678.46,1538.62 679.01,1538.23 680.43,1538.08"/>
    </edge>
    <edge id=":10_3" function="internal">
        <lane id=":10_3_0" index="0" disallow="tram rail_urban rail rail_electric rail_fast ship" speed="8.08" length="17.45" shape="665.10,1522.98 669.79,1528.07 673.64,1530.99 676.65,1531.75 678.82,1530.33"/>
    </edge>
    <edge id=":10_4" function="internal">
        <lane id=":10_4_0" index="0" disallow="tram rail_urban rail rail_electric rail_fast ship" speed="20.84" length="21.60" shape="665.10,1522.98 668.22,1526.64 672.31,1531.10 676.62,1535.28 680.43,1538.08"/>
    </edge>
    <edge id=":10_5" function="internal">
        <lane id=":10_5_0" index="0" disallow="tram rail_urban rail rail_electric rail_fast ship" speed="5.10" length="7.06" shape="665.10,1522.98 665.94,1525.54 664.98,1527.91 663.45,1528.88"/>
    </edge>
    <edge id=":10_11" function="internal">
        <lane id=":10_11_0" index="0" disallow="tram rail_urban rail rail_electric rail_fast ship" speed="5.10" length="3.24" shape="663.45,1528.88 662.89,1529.23 660.37,1528.67"/>
    </edge>
    <edge id=":10_6" function="internal">
        <lane id=":10_6_0" index="0" disallow="tram rail_urban rail rail_electric rail_fast ship" speed="9.05" length="18.58" shape="662.24,1526.06 668.17,1529.82 672.91,1531.79 676.46,1531.96 678.82,1530.33"/>
    </edge>
    <edge id=":10_7" function="internal">
        <lane id=":10_7_0" index="0" disallow="tram rail_urban rail rail_electric rail_fast ship" speed="27.78" length="21.82" shape="662.24,1526.06 666.17,1528.83 671.20,1532.29 676.30,1535.63 680.43,1538.08"/>
    </edge>
    <edge id=":10_8" function="internal">
        <lane id=":10_8_0" index="0" disallow="tram rail_urban rail rail_electric rail_fast ship" speed="3.65" length="2.34" shape="662.24,1526.06 662.75,1527.41 662.61,1528.30"/>
    </edge>
    <edge id=":10_12" function="internal">
        <lane id=":10_12_0" index="0" disallow="tram rail_urban rail rail_electric rail_fast ship" speed="3.65" length="2.34" shape="662.61,1528.30 661.82,1528.72 660.37,1528.67"/>
    </edge>
    <edge id=":11_0" function="internal">
        <lane id=":11_0_0" index="0" disallow="tram rail_urban rail rail_electric rail_fast ship" speed="20.84" length="11.43" shape="732.05,1595.00 726.48,1585.02"/>
    </edge>
    <edge id=":11_1" function="internal">
        <lane id=":11_1_0" index="0" disallow="tram rail_urban rail rail_electric rail_fast ship" speed="3.65" length="2.34" shape="732.05,1595.00 732.13,1593.56 732.61,1592.81"/>
    </edge>
    <edge id=":11_6" function="internal">
        <lane id=":11_6_0" index="0" disallow="tram rail_urban rail rail_electric rail_fast ship" speed="3.65" length="2.34" shape="732.61,1592.81 733.50,1592.75 734.80,1593.38"/>
    </edge>
    <edge id=":11_2" function="internal">
        <lane id=":11_2_0" index="0" disallow="tram rail_urban rail rail_electric rail_fast ship" speed="6.42" length="9.03" shape="736.92,1585.82 734.91,1587.30 733.89,1589.05 733.86,1591.08 734.80,1593.38"/>
    </edge>
    <edge id=":11_3" function="internal">
        <lane id=":11_3_0" index="0" disallow="tram rail_urban rail rail_electric rail_fast ship" speed="7.32" length="11.78" shape="736.92,1585.82 733.34,1587.34 730.41,1587.72 728.12,1586.95 726.48,1585.02"/>
    </edge>
    <edge id=":11_4" function="internal">
        <lane id=":11_4_0" index="0" disallow="tram rail_urban rail rail_electric rail_fast ship" speed="27.78" length="11.28" shape="729.24,1583.57 734.80,1593.38"/>
    </edge>
    <edge id=":11_5" function="internal">
        <lane id=":11_5_0" index="0" disallow="tram rail_urban rail rail_electric rail_fast ship" speed="3.63" length="2.28" shape="729.24,1583.57 729.10,1584.97 728.59,1585.68"/>
    </edge>
    <edge id=":11_7" function="internal">
        <lane id=":11_7_0" index="0" disallow="tram rail_urban rail rail_electric rail_fast ship" speed="3.63" length="2.28" shape="728.59,1585.68 727.72,1585.70 726.48,1585.02"/>
    </edge>
    <edge id=":12_0" function="internal">
        <lane id=":12_0_0" index="0" disallow="tram rail_urban rail rail_electric rail_fast ship" speed="27.78" length="11.20" shape="770.57,1663.30 769.12,1660.51 768.34,1658.18 767.58,1655.84 766.20,1653.02"/>
    </edge>
    <edge id=":12_1" function="internal">
        <lane id=":12_1_0" index="0" disallow="tram rail_urban rail rail_electric rail_fast ship" speed="7.53" length="5.89" shape="770.57,1663.30 769.78,1660.81 770.52,1658.34 770.99,1657.82"/>
    </edge>
    <edge id=":12_2" function="internal">
        <lane id=":12_2_0" index="0" disallow="tram rail_urban rail rail_electric rail_fast ship" speed="4.22" length="4.43" shape="770.57,1663.30 770.63,1661.13 771.33,1659.99 772.25,1659.90"/>
    </edge>
    <edge id=":12_6" function="internal">
        <lane id=":12_6_0" index="0" disallow="tram rail_urban rail rail_electric rail_fast ship" speed="7.53" length="7.19" shape="770.99,1657.82 772.79,1655.86 776.58,1653.40"/>
    </edge>
    <edge id=":12_7" function="internal">
        <lane id=":12_7_0" index="0" disallow="tram rail_urban rail rail_electric rail_fast ship" speed="4.22" length="2.58" shape="772.25,1659.90 772.67,1659.86 774.64,1660.75"/>
    </edge>
    <edge id=":12_3" function="internal">
        <lane id=":12_3_0" index="0" disallow="tram rail_urban rail rail_electric rail_fast ship" speed="6.56" length="8.92" shape="768.95,1651.39 770.46,1653.26 772.23,1654.22 774.27,1654.27 776.58,1653.40"/>
    </edge>
    <edge id=":12_4" function="internal">
        <lane id=":12_4_0" index="0" disallow="tram rail_urban rail rail_electric rail_fast ship" speed="27.78" length="10.95" shape="768.95,1651.39 774.64,1660.75"/>
    </edge>
    <edge id=":12_5" function="internal">
        <lane id=":12_5_0" index="0" disallow="tram rail_urban rail rail_electric rail_fast ship" speed="3.65" length="2.47" shape="768.95,1651.39 768.87,1652.83 768.39,1653.58 768.26,1653.59"/>
    </edge>
    <edge id=":12_8" function="internal">
        <lane id=":12_8_0" index="0" disallow="tram rail_urban rail rail_electric rail_fast ship" speed="3.65" length="2.21" shape="768.26,1653.59 767.49,1653.64 766.20,1653.02"/>
    </edge>
    <edge id=":13_0" function="internal">
        <lane id=":13_0_0" index="0" disallow="tram rail_urban rail rail_electric rail_fast ship" speed="27.78" length="24.71" shape="819.86,1737.24 816.52,1733.16 812.05,1727.65 807.69,1722.07 804.63,1717.79"/>
    </edge>
    <edge id=":13_1" function="internal">
        <lane id=":13_1_0" index="0" disallow="tram rail_urban rail rail_electric rail_fast ship" speed="7.70" length="6.58" shape="819.86,1737.24 817.68,1733.61 817.45,1731.28"/>
    </edge>
    <edge id=":13_2" function="internal">
        <lane id=":13_2_0" index="0" disallow="tram rail_urban rail rail_electric rail_fast ship" speed="3.65" length="2.34" shape="819.86,1737.24 819.72,1735.80 820.09,1734.99"/>
    </edge>
    <edge id=":13_9" function="internal">
        <lane id=":13_9_0" index="0" disallow="tram rail_urban rail rail_electric rail_fast ship" speed="7.70" length="8.41" shape="817.45,1731.28 817.37,1730.36 818.92,1727.49 822.33,1724.99"/>
    </edge>
    <edge id=":13_10" function="internal">
        <lane id=":13_10_0" index="0" disallow="tram rail_urban rail rail_electric rail_fast ship" speed="3.65" length="2.34" shape="820.09,1734.99 820.96,1734.79 822.34,1735.22"/>
    </edge>
    <edge id=":13_3" function="internal">
        <lane id=":13_3_0" index="0" disallow="tram rail_urban rail rail_electric rail_fast ship" speed="6.13" length="9.06" shape="823.83,1727.82 821.77,1729.33 820.83,1731.06 821.02,1733.03 822.34,1735.22"/>
    </edge>
    <edge id=":13_4" function="internal">
        <lane id=":13_4_0" index="0" disallow="tram rail_urban rail rail_electric rail_fast ship" speed="10.53" length="23.99" shape="823.83,1727.82 818.99,1729.12 814.18,1727.89 809.39,1724.11 804.63,1717.79"/>
    </edge>
    <edge id=":13_5" function="internal">
        <lane id=":13_5_0" index="0" disallow="tram rail_urban rail rail_electric rail_fast ship" speed="3.65" length="2.76" shape="823.83,1727.82 822.40,1727.67 821.67,1727.15 821.66,1726.73"/>
    </edge>
    <edge id=":13_11" function="internal">
        <lane id=":13_11_0" index="0" disallow="tram rail_urban rail rail_electric rail_fast ship" speed="3.65" length="1.91" shape="821.66,1726.73 821.64,1726.26 822.33,1724.99"/>
    </edge>
    <edge id=":13_6" function="internal">
        <lane id=":13_6_0" index="0" disallow="tram rail_urban rail rail_electric rail_fast ship" speed="9.21" length="18.14" shape="808.70,1715.24 812.54,1720.64 816.10,1724.06 819.36,1725.51 822.33,1724.99"/>
    </edge>
    <edge id=":13_7" function="internal">
        <lane id=":13_7_0" index="0" disallow="tram rail_urban rail rail_electric rail_fast ship" speed="27.78" length="24.19" shape="808.70,1715.24 811.51,1719.61 815.33,1725.37 819.25,1731.06 822.34,1735.22"/>
    </edge>
    <edge id=":13_8" function="internal">
        <lane id=":13_8_0" index="0" disallow="tram rail_urban rail rail_electric rail_fast ship" speed="4.22" length="4.26" shape="808.70,1715.24 808.64,1717.41 807.94,1718.55 807.19,1718.62"/>
    </edge>
    <edge id=":13_12" function="internal">
        <lane id=":13_12_0" index="0" disallow="tram rail_urban rail rail_electric rail_fast ship" speed="4.22" length="2.75" shape="807.19,1718.62 806.60,1718.68 804.63,1717.79"/>
    </edge>
    <edge id=":14_0" function="internal">
        <lane id=":14_0_0" index="0" disallow="tram rail_urban rail rail_electric rail_fast ship" speed="6.55" length="7.84" shape="869.32,1792.87 870.86,1794.30 872.53,1795.01 874.35,1795.00 876.32,1794.27"/>
    </edge>
    <edge id=":14_1" function="internal">
        <lane id=":14_1_0" index="0" disallow="tram rail_urban rail rail_electric rail_fast ship" speed="3.65" length="4.67" shape="869.32,1792.87 869.46,1794.31 869.09,1795.12 868.22,1795.32 866.84,1794.89"/>
    </edge>
    <edge id=":15_0" function="internal">
        <lane id=":15_0_0" index="0" disallow="tram rail_urban rail rail_electric rail_fast ship" speed="6.49" length="9.03" shape="968.06,1744.90 970.05,1743.43 971.09,1741.67 971.17,1739.64 970.30,1737.32"/>
    </edge>
    <edge id=":15_1" function="internal">
        <lane id=":15_1_0" index="0" disallow="tram rail_urban rail rail_electric rail_fast ship" speed="13.89" length="11.21" shape="968.06,1744.90 977.91,1739.54"/>
    </edge>
    <edge id=":16_0" function="internal">
        <lane id=":16_0_0" index="0" disallow="tram rail_urban rail rail_electric rail_fast ship" speed="6.51" length="9.03" shape="987.98,1727.67 989.45,1729.66 991.21,1730.70 993.25,1730.80 995.57,1729.94"/>
    </edge>
    <edge id=":16_1" function="internal">
        <lane id=":16_1_0" index="0" disallow="tram rail_urban rail rail_electric rail_fast ship" speed="13.89" length="11.20" shape="985.71,1735.26 995.57,1729.94"/>
    </edge>
    <edge id=":17_0" function="internal">
        <lane id=":17_0_0" index="0" disallow="tram rail_urban rail rail_electric rail_fast ship" speed="6.55" length="9.07" shape="935.86,1674.56 934.37,1672.58 932.60,1671.54 930.55,1671.44 928.21,1672.29"/>
    </edge>
    <edge id=":17_1" function="internal">
        <lane id=":17_1_0" index="0" disallow="tram rail_urban rail rail_electric rail_fast ship" speed="27.78" length="14.42" shape="935.86,1674.56 929.00,1661.87"/>
    </edge>
    <edge id=":17_2" function="internal">
        <lane id=":17_2_0" index="0" disallow="tram rail_urban rail rail_electric rail_fast ship" speed="7.35" length="11.77" shape="935.86,1674.56 934.32,1671.01 933.92,1668.09 934.67,1665.79 936.57,1664.11"/>
    </edge>
    <edge id=":17_3" function="internal">
        <lane id=":17_3_0" index="0" disallow="tram rail_urban rail rail_electric rail_fast ship" speed="27.78" length="11.29" shape="938.12,1666.90 928.21,1672.29"/>
    </edge>
    <edge id=":17_4" function="internal">
        <lane id=":17_4_0" index="0" disallow="tram rail_urban rail rail_electric rail_fast ship" speed="7.29" length="4.11" shape="938.12,1666.90 935.69,1667.62 934.17,1667.23"/>
    </edge>
    <edge id=":17_5" function="internal">
        <lane id=":17_5_0" index="0" disallow="tram rail_urban rail rail_electric rail_fast ship" speed="3.65" length="2.34" shape="938.12,1666.90 936.68,1666.79 935.95,1666.28"/>
    </edge>
    <edge id=":17_9" function="internal">
        <lane id=":17_9_0" index="0" disallow="tram rail_urban rail rail_electric rail_fast ship" speed="7.29" length="7.65" shape="934.17,1667.23 933.36,1667.02 931.13,1665.11 929.00,1661.87"/>
    </edge>
    <edge id=":17_10" function="internal">
        <lane id=":17_10_0" index="0" disallow="tram rail_urban rail rail_electric rail_fast ship" speed="3.65" length="2.34" shape="935.95,1666.28 935.91,1665.39 936.57,1664.11"/>
    </edge>
    <edge id=":17_6" function="internal">
        <lane id=":17_6_0" index="0" disallow="tram rail_urban rail rail_electric rail_fast ship" speed="6.51" length="9.05" shape="926.70,1669.47 928.70,1668.01 929.75,1666.25 929.85,1664.21 929.00,1661.87"/>
    </edge>
    <edge id=":17_7" function="internal">
        <lane id=":17_7_0" index="0" disallow="tram rail_urban rail rail_electric rail_fast ship" speed="27.78" length="11.23" shape="926.70,1669.47 936.57,1664.11"/>
    </edge>
    <edge id=":17_8" function="internal">
        <lane id=":17_8_0" index="0" disallow="tram rail_urban rail rail_electric rail_fast ship" speed="3.65" length="4.67" shape="926.70,1669.47 928.14,1669.61 928.87,1670.13 928.89,1671.02 928.21,1672.29"/>
    </edge>
    <edge id=":18_0" function="internal">
        <lane id=":18_0_0" index="0" disallow="tram rail_urban rail rail_electric rail_fast ship" speed="6.53" length="9.06" shape="956.32,1656.99 954.32,1658.47 953.28,1660.24 953.18,1662.28 954.03,1664.60"/>
    </edge>
    <edge id=":18_1" function="internal">
        <lane id=":18_1_0" index="0" disallow="tram rail_urban rail rail_electric rail_fast ship" speed="27.78" length="11.25" shape="956.32,1656.99 946.41,1662.31"/>
    </edge>
    <edge id=":18_2" function="internal">
        <lane id=":18_2_0" index="0" disallow="tram rail_urban rail rail_electric rail_fast ship" speed="3.65" length="2.34" shape="956.32,1656.99 954.89,1656.86 954.15,1656.35"/>
    </edge>
    <edge id=":18_9" function="internal">
        <lane id=":18_9_0" index="0" disallow="tram rail_urban rail rail_electric rail_fast ship" speed="3.65" length="2.34" shape="954.15,1656.35 954.12,1655.45 954.79,1654.18"/>
    </edge>
    <edge id=":18_3" function="internal">
        <lane id=":18_3_0" index="0" disallow="tram rail_urban rail rail_electric rail_fast ship" speed="6.49" length="9.03" shape="947.21,1651.91 948.68,1653.91 950.43,1654.95 952.47,1655.04 954.79,1654.18"/>
    </edge>
    <edge id=":18_4" function="internal">
        <lane id=":18_4_0" index="0" disallow="tram rail_urban rail rail_electric rail_fast ship" speed="27.78" length="14.40" shape="947.21,1651.91 954.03,1664.60"/>
    </edge>
    <edge id=":18_5" function="internal">
        <lane id=":18_5_0" index="0" disallow="tram rail_urban rail rail_electric rail_fast ship" speed="7.32" length="11.74" shape="947.21,1651.91 948.72,1655.48 949.09,1658.40 948.32,1660.68 946.41,1662.31"/>
    </edge>
    <edge id=":18_6" function="internal">
        <lane id=":18_6_0" index="0" disallow="tram rail_urban rail rail_electric rail_fast ship" speed="27.78" length="11.22" shape="944.91,1659.49 954.79,1654.18"/>
    </edge>
    <edge id=":18_7" function="internal">
        <lane id=":18_7_0" index="0" disallow="tram rail_urban rail rail_electric rail_fast ship" speed="7.35" length="4.02" shape="944.91,1659.49 947.34,1658.82 948.79,1659.22"/>
    </edge>
    <edge id=":18_8" function="internal">
        <lane id=":18_8_0" index="0" disallow="tram rail_urban rail rail_electric rail_fast ship" speed="3.65" length="2.34" shape="944.91,1659.49 946.34,1659.63 947.07,1660.15"/>
    </edge>
    <edge id=":18_10" function="internal">
        <lane id=":18_10_0" index="0" disallow="tram rail_urban rail rail_electric rail_fast ship" speed="7.35" length="7.72" shape="948.79,1659.22 949.67,1659.45 951.90,1661.38 954.03,1664.60"/>
    </edge>
    <edge id=":18_11" function="internal">
        <lane id=":18_11_0" index="0" disallow="tram rail_urban rail rail_electric rail_fast ship" speed="3.65" length="2.34" shape="947.07,1660.15 947.09,1661.04 946.41,1662.31"/>
    </edge>
    <edge id=":19_0" function="internal">
        <lane id=":19_0_0" index="0" disallow="tram rail_urban rail rail_electric rail_fast ship" speed="27.78" length="11.21" shape="894.15,1596.39 888.83,1586.52"/>
    </edge>
    <edge id=":19_1" function="internal">
        <lane id=":19_1_0" index="0" disallow="tram rail_urban rail rail_electric rail_fast ship" speed="6.55" length="9.08" shape="894.15,1596.39 893.30,1594.06 893.40,1592.00 894.44,1590.23 896.42,1588.74"/>
    </edge>
    <edge id=":19_2" function="internal">
        <lane id=":19_2_0" index="0" disallow="tram rail_urban rail rail_electric rail_fast ship" speed="6.50" length="9.03" shape="886.57,1594.10 888.57,1592.63 889.61,1590.87 889.69,1588.84 888.83,1586.52"/>
    </edge>
    <edge id=":19_3" function="internal">
        <lane id=":19_3_0" index="0" disallow="tram rail_urban rail rail_electric rail_fast ship" speed="13.89" length="11.21" shape="886.57,1594.10 896.42,1588.74"/>
    </edge>
    <edge id=":2_0" function="internal">
        <lane id=":2_0_0" index="0" disallow="tram rail_urban rail rail_electric rail_fast ship" speed="20.84" length="14.25" shape="362.90,1073.23 359.88,1071.22 356.92,1069.36 353.89,1067.62 350.65,1066.00"/>
    </edge>
    <edge id=":2_1" function="internal">
        <lane id=":2_1_0" index="0" disallow="tram rail_urban rail rail_electric rail_fast ship" speed="7.24" length="15.57" shape="362.90,1073.23 359.32,1070.08 358.13,1067.08 359.33,1064.24 362.92,1061.55"/>
    </edge>
    <edge id=":2_2" function="internal">
        <lane id=":2_2_0" index="0" disallow="tram rail_urban rail rail_electric rail_fast ship" speed="3.35" length="1.50" shape="362.90,1073.23 362.46,1072.23 362.50,1071.83"/>
    </edge>
    <edge id=":2_9" function="internal">
        <lane id=":2_9_0" index="0" disallow="tram rail_urban rail rail_electric rail_fast ship" speed="3.35" length="2.06" shape="362.50,1071.83 362.53,1071.55 363.12,1071.20 364.22,1071.18"/>
    </edge>
    <edge id=":2_3" function="internal">
        <lane id=":2_3_0" index="0" disallow="tram rail_urban rail rail_electric rail_fast ship" speed="5.69" length="9.22" shape="364.46,1064.36 362.24,1065.99 361.46,1067.67 362.12,1069.40 364.22,1071.18"/>
    </edge>
    <edge id=":2_4" function="internal">
        <lane id=":2_4_0" index="0" disallow="tram rail_urban rail rail_electric rail_fast ship" speed="11.05" length="14.42" shape="364.46,1064.36 360.60,1066.09 357.01,1066.94 353.70,1066.91 350.65,1066.00"/>
    </edge>
    <edge id=":2_5" function="internal">
        <lane id=":2_5_0" index="0" disallow="tram rail_urban rail rail_electric rail_fast ship" speed="3.65" length="4.67" shape="364.46,1064.36 363.02,1064.23 362.29,1063.72 362.25,1062.82 362.92,1061.55"/>
    </edge>
    <edge id=":2_6" function="internal">
        <lane id=":2_6_0" index="0" disallow="tram rail_urban rail rail_electric rail_fast ship" speed="9.93" length="11.44" shape="351.98,1063.13 354.31,1063.78 356.91,1063.73 359.78,1062.99 362.92,1061.55"/>
    </edge>
    <edge id=":2_7" function="internal">
        <lane id=":2_7_0" index="0" disallow="tram rail_urban rail rail_electric rail_fast ship" speed="27.78" length="14.67" shape="351.98,1063.13 355.22,1064.88 358.23,1066.92 361.17,1069.08 364.22,1071.18"/>
    </edge>
    <edge id=":2_8" function="internal">
        <lane id=":2_8_0" index="0" disallow="tram rail_urban rail rail_electric rail_fast ship" speed="3.64" length="2.31" shape="351.98,1063.13 352.73,1064.34 352.75,1065.23"/>
    </edge>
    <edge id=":2_10" function="internal">
        <lane id=":2_10_0" index="0" disallow="tram rail_urban rail rail_electric rail_fast ship" speed="3.64" length="2.31" shape="352.75,1065.23 352.06,1065.78 350.65,1066.00"/>
    </edge>
    <edge id=":20_0" function="internal">
        <lane id=":20_0_0" index="0" disallow="tram rail_urban rail rail_electric rail_fast ship" speed="6.51" length="9.02" shape="906.85,1576.69 908.33,1578.67 910.09,1579.71 912.12,1579.80 914.44,1578.95"/>
    </edge>
    <edge id=":20_1" function="internal">
        <lane id=":20_1_0" index="0" disallow="tram rail_urban rail rail_electric rail_fast ship" speed="27.78" length="11.18" shape="906.85,1576.69 912.17,1586.53"/>
    </edge>
    <edge id=":20_2" function="internal">
        <lane id=":20_2_0" index="0" disallow="tram rail_urban rail rail_electric rail_fast ship" speed="13.89" length="11.17" shape="904.61,1584.26 914.44,1578.95"/>
    </edge>
    <edge id=":20_3" function="internal">
        <lane id=":20_3_0" index="0" disallow="tram rail_urban rail rail_electric rail_fast ship" speed="6.49" length="9.01" shape="904.61,1584.26 906.93,1583.40 908.96,1583.50 910.71,1584.54 912.17,1586.53"/>
    </edge>
    <edge id=":21_0" function="internal">
        <lane id=":21_0_0" index="0" disallow="tram rail_urban rail rail_electric rail_fast ship" speed="6.51" length="9.01" shape="856.78,1527.61 855.32,1525.65 853.56,1524.63 851.52,1524.55 849.19,1525.41"/>
    </edge>
    <edge id=":21_1" function="internal">
        <lane id=":21_1_0" index="0" disallow="tram rail_urban rail rail_electric rail_fast ship" speed="27.78" length="11.20" shape="856.78,1527.61 851.44,1517.77"/>
    </edge>
    <edge id=":21_2" function="internal">
        <lane id=":21_2_0" index="0" disallow="tram rail_urban rail rail_electric rail_fast ship" speed="13.89" length="11.23" shape="859.06,1520.05 849.19,1525.41"/>
    </edge>
    <edge id=":21_3" function="internal">
        <lane id=":21_3_0" index="0" disallow="tram rail_urban rail rail_electric rail_fast ship" speed="6.53" length="9.05" shape="859.06,1520.05 856.72,1520.89 854.68,1520.79 852.91,1519.75 851.44,1517.77"/>
    </edge>
    <edge id=":22_0" function="internal">
        <lane id=":22_0_0" index="0" disallow="tram rail_urban rail rail_electric rail_fast ship" speed="6.50" length="9.03" shape="877.08,1510.39 875.09,1511.86 874.05,1513.62 873.96,1515.65 874.83,1517.97"/>
    </edge>
    <edge id=":22_1" function="internal">