<?xml version="1.0" encoding="UTF-8"?>

<!-- 
	with the convention that shadow charging station is always on edge starting with "-" 
	and the length of charging station to be 5
-->

<additional xmlns:xsi="http://www.w3.org/2001/XMLSchema-instance" xsi:noNamespaceSchemaLocation="http://sumo.dlr.de/xsd/additional_file.xsd">
    <chargingStation id="0_shadow" lane="-735173276#0_0" startPos="31.23" endPos="36.23"/>
    <chargingStation id="0" lane="735173276#0_0" startPos="30.52" endPos="35.52"/>
    <chargingStation id="1_shadow" lane="-608355942_0" startPos="19.47" endPos="24.47"/>
    <chargingStation id="1" lane="608355942_0" startPos="32.89" endPos="37.89"/>
</additional>
