<?xml version="1.0" encoding="UTF-8"?>

<!-- generated on 2022-03-12 20:22:51 by Eclipse SUMO netedit Version 1.10.0
<configuration xmlns:xsi="http://www.w3.org/2001/XMLSchema-instance" xsi:noNamespaceSchemaLocation="http://sumo.dlr.de/xsd/netconvertConfiguration.xsd">

    <input>
        <sumo-net-file value="/Users/yunhaowang/Desktop/sumo-gym/assets/data/cosmos/cosmos.net.xml"/>
    </input>

    <output>
        <output-file value="/Users/yunhaowang/Desktop/sumo-gym/assets/data/cosmos/cosmos.net.xml"/>
    </output>

    <processing>
        <geometry.min-radius.fix.railways value="false"/>
        <geometry.max-grade.fix value="false"/>
        <offset.disable-normalization value="true"/>
        <lefthand value="false"/>
    </processing>

    <junctions>
        <no-turnarounds value="true"/>
        <junctions.corner-detail value="5"/>
        <junctions.limit-turn-speed value="5.5"/>
        <rectangular-lane-cut value="false"/>
    </junctions>

    <pedestrian>
        <walkingareas value="false"/>
    </pedestrian>

    <netedit>
        <route-files value="/Users/yunhaowang/Desktop/sumo-gym/assets/data/cosmos/cosmos_background.rou.xml"/>
    </netedit>

    <report>
        <aggregate-warnings value="5"/>
    </report>

</configuration>
-->

<routes xmlns:xsi="http://www.w3.org/2001/XMLSchema-instance" xsi:noNamespaceSchemaLocation="http://sumo.dlr.de/xsd/routes_file.xsd">
    <vType id="type0" length="5.00" minGap="2.50" maxSpeed="35.00" color="red" accel="3.0" decel="6.0" sigma="0.5"/>
    <flow id="f1" begin="0.00" from="-165473832#2" to="-497252083#3" end="1000.00" period="10.00"/>
    <flow id="f10" begin="0.00" from="-196116967#0" to="-778007334#0" end="1000.00" period="0.50"/>
    <flow id="f10.1" begin="0.00" from="5670405" to="-778007334#0" end="1000.00" period="0.10"/>
    <flow id="f10.2" begin="0.00" from="-455687907#3" to="-778007334#0" end="1000.00" period="0.50"/>
    <flow id="f10.3" begin="0.00" from="-455687907#1" to="-778007334#0" end="1000.00" period="0.50"/>
    <flow id="f11" begin="0.00" from="223503127#7" to="195743150#0" end="1000.00" period="15.00"/>
    <flow id="f13" begin="0.00" from="525667717" to="195743150#0" end="1000.00" period="15.00"/>
    <flow id="f14" begin="0.00" from="5671257#0" to="195743150#0" end="1000.00" period="15.00"/>
    <flow id="f15" begin="0.00" from="5670688#0" to="195743150#0" end="1000.00" period="15.00"/>
    <flow id="f16" begin="0.00" from="223503127#7" to="195743150#0" end="1000.00" period="12.00"/>
    <flow id="f17" begin="0.00" from="223503127#8" to="195743150#0" end="1000.00" period="12.00"/>
    <flow id="f3" begin="0.00" from="gneE15" to="-497252083#3" end="1000.00" period="10.00"/>
    <flow id="f4" begin="0.00" from="gneE16" to="-497252083#3" end="1000.00" period="10.00"/>
    <flow id="f4.1" begin="0.00" from="-577976192#10" to="-497252083#3" end="1000.00" period="10.00"/>
    <flow id="f4.2" begin="0.00" from="-577976192#8" to="-46568321#1" end="1000.00" period="1.00"/>
    <flow id="f5" begin="0.00" from="-735173276#1" to="-46568321#1" via="-735173276#0 gneE13 gneE12 gneE11 gneE9 gneE6 gneE4 gneE0" end="1000.00" period="0.30"/>
    <flow id="f6" begin="0.00" departPos="80.00" from="5671137#4" to="-46568321#1" via="gneE13 gneE12 gneE11 gneE9 gneE6 gneE4 gneE0" end="1000.00" period="0.30"/>
    <flow id="f7" begin="0.00" departPos="80.00" from="5673305#6" to="-46568321#1" via="gneE6 gneE4 gneE0" end="1000.00" period="0.40"/>
    <flow id="f8" begin="0.00" departPos="80.00" from="5671331" to="-46568321#1" end="1000.00" period="0.50"/>
    <flow id="f8.1" begin="0.00" from="gneE4" to="-46568321#1" end="1000.00" period="15.00"/>
    <flow id="f8.2" begin="0.00" from="gneE12" to="-46568321#1" end="1000.00" period="13.00"/>
    <flow id="f8.3" begin="0.00" from="-735173276#0" to="-46568321#1" end="1000.00" period="13.00"/>
    <flow id="f9" begin="0.00" departPos="90.00" from="-165473832#3" to="-778007334#0" end="1000.00" period="0.10"/>
    <flow id="f9.5" begin="0.00" from="5671137#0" to="-778007334#0" end="1000.00" period="0.10"/>
    <trip id="3" depart="3.90" from="5670226#5" to="195743194#0"/>
    <trip id="4" depart="5.20" from="243056525#1" to="195743206"/>
    <trip id="5" depart="6.50" from="-455687907#6" to="525667715#0"/>
    <trip id="6" depart="7.80" from="195743149#4" to="243056525#4"/>
    <trip id="7" depart="9.10" from="5670735#1" to="-455687907#6"/>
    <trip id="8" depart="10.40" from="195743146#4" to="223503127#9"/>
    <trip id="9" depart="11.70" from="828307999" to="577976192#7"/>
    <trip id="10" depart="13.00" from="gneE11" to="195743194#2"/>
    <trip id="11" depart="14.30" from="-455687907#6" to="-196116967#0"/>
    <trip id="12" depart="15.60" from="-497252083#3" to="5671137#2"/>
    <trip id="13" depart="16.90" from="455687907#5" to="525667717"/>
    <trip id="14" depart="18.20" from="165473832#2" to="5670688#4"/>
    <trip id="15" depart="19.50" from="525667716" to="5673106#2"/>
    <trip id="16" depart="20.80" from="5671137#0" to="-455687907#5"/>
    <trip id="17" depart="22.10" from="5671137#4" to="-778007334#0"/>
    <trip id="18" depart="23.40" from="223503127#12" to="5672325"/>
    <trip id="19" depart="24.70" from="542225570" to="-455687907#3"/>
    <trip id="20" depart="26.00" from="234725483" to="-455687907#3"/>
    <trip id="21" depart="27.30" from="525667719" to="608355942"/>
    <trip id="22" depart="28.60" from="195743146#3" to="196116967#0"/>
    <trip id="23" depart="29.90" from="-455687907#0" to="-196116967#1"/>
    <trip id="24" depart="31.20" from="-608355942" to="828307999"/>
    <trip id="25" depart="32.50" from="-455687907#3" to="223503127#11"/>
    <trip id="26" depart="33.80" from="-5670226#5" to="gneE6"/>
    <trip id="27" depart="35.10" from="5671137#2" to="223503127#7"/>
    <trip id="28" depart="36.40" from="195743146#1" to="524558207"/>
    <trip id="29" depart="37.70" from="5673305#6" to="223503127#13"/>
    <trip id="30" depart="39.00" from="-455688156" to="5671137#1"/>
    <trip id="31" depart="40.30" from="5670226#3" to="gneE5"/>
    <trip id="32" depart="41.60" from="525667716" to="195743149#4"/>
    <trip id="33" depart="42.90" from="-455688156" to="-455687907#1"/>
    <trip id="34" depart="44.20" from="-577976192#10" to="577976192#7"/>
    <trip id="35" depart="45.50" from="524558206#0" to="234726497#3"/>
    <trip id="36" depart="46.80" from="-5670226#1" to="-577976192#7"/>
    <trip id="37" depart="48.10" from="5670688#1" to="525667718#0"/>
    <trip id="38" depart="49.40" from="455687907#2" to="243056524#1"/>
    <trip id="39" depart="50.70" from="5671781" to="243056525#2"/>
    <trip id="40" depart="52.00" from="5670226#1" to="-455688156"/>
    <trip id="41" depart="53.30" from="778007334#0" to="243056525#1"/>
    <trip id="42" depart="54.60" from="525667716" to="525667719"/>
    <trip id="43" depart="55.90" from="455687907#3" to="46568321#1"/>
    <trip id="44" depart="57.20" from="5673305#6" to="195743194#0"/>
    <trip id="45" depart="58.50" from="-196117053#1" to="5670405"/>
    <trip id="46" depart="59.80" from="223503127#14" to="5673106#1"/>
    <trip id="47" depart="61.10" from="525667717" to="234726492#1"/>
    <trip id="48" depart="62.40" from="5670226#5" to="-577976192#10"/>
    <trip id="49" depart="63.70" from="5670735#1" to="195743206"/>
    <trip id="50" depart="65.00" from="234726492#1" to="455687907#4"/>
    <trip id="51" depart="66.30" from="5670688#4" to="gneE0"/>
    <trip id="52" depart="67.60" from="5673305#2" to="5671137#0"/>
    <trip id="53" depart="68.90" from="525667719" to="195743146#2"/>
    <trip id="54" depart="70.20" from="735173276#1" to="5673326"/>
    <trip id="55" depart="71.50" from="525667715#0" to="5672325"/>
    <trip id="56" depart="72.80" from="525667715#0" to="-5670735#1"/>
    <trip id="57" depart="74.10" from="165473832#3" to="gneE0"/>
    <trip id="58" depart="75.40" from="455687907#3" to="-455687907#6"/>
    <trip id="59" depart="76.70" from="gneE11" to="234726492#3"/>
    <trip id="60" depart="78.00" from="165473832#3" to="-778007334#1"/>
    <trip id="61" depart="79.30" from="-165473832#2" to="gneE4"/>
    <vehicle id="-12" type="type0" depart="80.00">
        <route edges="-196117053#1 -735173276#1" color="yellow"/>
    </vehicle>
    <vehicle id="-3" type="type0" depart="80.00">
        <route edges="-577976192#13 -577976192#12" color="yellow"/>
    </vehicle>
    <vehicle id="-6" type="type0" depart="80.00">
        <route edges="-196116967#1 -196116967#0" color="yellow"/>
    </vehicle>
    <vehicle id="-9" type="type0" depart="80.00">
        <route edges="223503127#6 223503127#7" color="yellow"/>
    </vehicle>
    <vehicle id="-11" type="type0" depart="81.00">
        <route edges="-196117053#1 -735173276#1" color="yellow"/>
    </vehicle>
    <vehicle id="-2" type="type0" depart="81.00">
        <route edges="-577976192#13 -577976192#12" color="yellow"/>
    </vehicle>
    <vehicle id="-5" type="type0" depart="81.00">
        <route edges="-196116967#1 -196116967#0" color="yellow"/>
    </vehicle>
    <vehicle id="-8" type="type0" depart="81.00">
        <route edges="223503127#6 223503127#7" color="yellow"/>
    </vehicle>
    <vehicle id="-1" type="type0" depart="82.00">
        <route edges="-577976192#13 -577976192#12" color="yellow"/>
    </vehicle>
    <vehicle id="-10" type="type0" depart="82.00">
        <route edges="-196117053#1 -735173276#1" color="yellow"/>
    </vehicle>
    <vehicle id="-4" type="type0" depart="82.00">
        <route edges="-196116967#1 -196116967#0" color="yellow"/>
    </vehicle>
    <vehicle id="-7" type="type0" depart="82.00">
        <route edges="223503127#6 223503127#7" color="yellow"/>
    </vehicle>
    <trip id="64" depart="83.20" from="223503127#14" to="5673106#2"/>
    <trip id="65" depart="84.50" from="223503127#9" to="-455687907#4"/>
    <trip id="66" depart="85.80" from="455687907#2" to="-455687907#4"/>
    <trip id="67" depart="87.10" from="234726492#0" to="455687907#4"/>
    <trip id="68" depart="88.40" from="223503127#7" to="5670203#3"/>
    <trip id="69" depart="89.70" from="-455687907#7" to="46568321#1"/>
    <trip id="70" depart="91.00" from="5670688#3" to="-577976192#7"/>
    <trip id="71" depart="92.30" from="455687907#0" to="5671257#0"/>
    <trip id="72" depart="93.60" from="5670688#1" to="828308000"/>
    <trip id="73" depart="94.90" from="68668550#1" to="196117053#1"/>
    <trip id="74" depart="96.20" from="223503127#11" to="-735173276#0"/>
    <trip id="75" depart="97.50" from="-5670226#1" to="-195743206"/>
    <trip id="76" depart="98.80" from="-165473832#2" to="455687907#7"/>
    <trip id="77" depart="100.10" from="223503127#12" to="5672325"/>
    <trip id="78" depart="101.40" from="gneE7" to="-455687907#7"/>
    <trip id="79" depart="102.70" from="5671137#3" to="5671137#0"/>
    <trip id="80" depart="104.00" from="525667715#0" to="223503127#9"/>
    <trip id="81" depart="105.30" from="-196116967#0" to="46577970#2"/>
    <trip id="82" depart="106.60" from="-5670226#3" to="195743149#4"/>
    <trip id="83" depart="107.90" from="5670688#2" to="577976192#12"/>
    <trip id="84" depart="109.20" from="735173276#0" to="223503127#11"/>
    <trip id="85" depart="110.50" from="223503127#10" to="195743146#5"/>
    <trip id="86" depart="111.80" from="-735173276#0" to="223503127#14"/>
    <trip id="87" depart="113.10" from="5670735#1" to="577976192#8"/>
    <trip id="88" depart="114.40" from="gneE6" to="455687907#6"/>
    <trip id="89" depart="115.70" from="735173276#0" to="455687907#3"/>
    <trip id="90" depart="117.00" from="243056524#1" to="-46568321#1"/>
    <trip id="91" depart="118.30" from="gneE8" to="525667715#1"/>
    <trip id="92" depart="119.60" from="223503127#9" to="-196116967#1"/>
    <trip id="93" depart="120.90" from="455688156" to="5670688#0"/>
    <trip id="94" depart="122.20" from="-165473832#3" to="223503127#13"/>
    <trip id="95" depart="123.50" from="gneE10" to="243056525#2"/>
    <trip id="96" depart="124.80" from="-735173276#0" to="5673106#2"/>
    <trip id="97" depart="126.10" from="223503127#6" to="455687907#6"/>
    <trip id="98" depart="127.40" from="525667718#0" to="-46568321#1"/>
    <trip id="99" depart="128.70" from="-5670226#0" to="gneE11"/>
    <trip id="100" depart="130.00" from="195743146#4" to="223503127#7"/>
    <trip id="101" depart="131.30" from="577976192#10" to="5670688#4"/>
    <trip id="102" depart="132.60" from="577976192#7" to="5673106#3"/>
    <trip id="103" depart="133.90" from="-455687907#2" to="5670735#1"/>
    <trip id="104" depart="135.20" from="195743146#4" to="5670405"/>
    <trip id="105" depart="136.50" from="243056524#1" to="223503127#6"/>
    <trip id="106" depart="137.80" from="gneE0" to="828308000"/>
    <trip id="107" depart="139.10" from="195743146#4" to="5670688#1"/>
    <trip id="108" depart="140.40" from="195743194#0" to="195743146#2"/>
    <trip id="109" depart="141.70" from="-5673326" to="223503127#13"/>
    <trip id="110" depart="143.00" from="525667719" to="5671257#1"/>
    <trip id="111" depart="144.30" from="5673305#0" to="497252083#3"/>
    <trip id="112" depart="145.60" from="5673305#1" to="5670688#2"/>
    <trip id="113" depart="146.90" from="577976192#12" to="223503127#10"/>
    <trip id="114" depart="148.20" from="5670203#4" to="5670688#2"/>
    <trip id="115" depart="149.50" from="gneE10" to="5673305#2"/>
    <trip id="116" depart="150.80" from="gneE6" to="524558207"/>
    <trip id="117" depart="152.10" from="-577976192#8" to="-165473832#3"/>
    <trip id="118" depart="153.40" from="5670688#4" to="-524558207"/>
    <trip id="119" depart="154.70" from="234726497#3" to="577976192#13"/>
    <trip id="120" depart="156.00" from="-577976192#8" to="-778007334#0"/>
    <trip id="121" depart="157.30" from="196116967#1" to="243056525#0"/>
    <trip id="122" depart="158.60" from="gneE4" to="-577976192#8"/>
    <trip id="123" depart="159.90" from="5673305#1" to="gneE12"/>
    <trip id="124" depart="161.20" from="5671137#0" to="-455687907#6"/>
    <trip id="125" depart="162.50" from="5673106#2" to="gneE13"/>
    <trip id="126" depart="163.80" from="-778007334#0" to="-5670226#0"/>
    <trip id="127" depart="165.10" from="165473832#2" to="234726492#1"/>
    <trip id="128" depart="166.40" from="5673305#0" to="243056525#4"/>
    <trip id="129" depart="167.70" from="5673106#2" to="-524558207"/>
    <trip id="130" depart="169.00" from="68668550#1" to="gneE11"/>
    <trip id="131" depart="170.30" from="gneE8" to="196116967#0"/>
    <trip id="132" depart="171.60" from="5673106#1" to="525667716"/>
    <trip id="133" depart="172.90" from="234726492#3" to="525667717"/>
    <trip id="134" depart="174.20" from="5671257#2" to="234726492#1"/>
    <trip id="136" depart="176.80" from="828307999" to="-577976192#13"/>
    <trip id="137" depart="178.10" from="455687907#0" to="-577976192#10"/>
    <trip id="138" depart="179.40" from="-46568321#1" to="165473832#3"/>
    <trip id="139" depart="180.70" from="195743146#2" to="828308000"/>
    <trip id="140" depart="182.00" from="497252083#3" to="-5670735#1"/>
    <trip id="141" depart="183.30" from="525667720" to="-5673326"/>
    <trip id="142" depart="184.60" from="455687907#7" to="gneE0"/>
    <trip id="143" depart="185.90" from="223503127#11" to="68668550#1"/>
    <trip id="145" depart="188.50" from="-577976192#12" to="828308000"/>
    <trip id="146" depart="189.80" from="-455687907#1" to="455687907#0"/>
    <trip id="147" depart="191.10" from="5670226#0" to="-524558207"/>
    <trip id="148" depart="192.40" from="-778007334#0" to="577976192#11"/>
    <trip id="149" depart="193.70" from="5670735#1" to="-455687907#2"/>
    <trip id="150" depart="195.00" from="735173541#0" to="-165473832#3"/>
    <trip id="151" depart="196.30" from="577976192#10" to="524558206#0"/>
    <trip id="152" depart="197.60" from="gneE11" to="46577970#2"/>
    <trip id="153" depart="198.90" from="5670226#0" to="195743194#0"/>
    <trip id="154" depart="200.20" from="-455687907#2" to="-455687907#6"/>
    <trip id="155" depart="201.50" from="-455687907#0" to="608355937#1"/>
    <trip id="156" depart="202.80" from="5670203#4" to="5671137#1"/>
    <trip id="157" depart="204.10" from="577976192#10" to="46568321#1"/>
    <trip id="158" depart="205.40" from="-455687907#1" to="5671331"/>
    <trip id="159" depart="206.70" from="223503127#7" to="455687907#1"/>
    <trip id="160" depart="208.00" from="195743194#0" to="234725483"/>
    <trip id="161" depart="209.30" from="5671257#1" to="455687907#0"/>
    <trip id="162" depart="210.60" from="455687907#2" to="-778007334#0"/>
    <trip id="163" depart="211.90" from="gneE0" to="5671137#4"/>
    <trip id="164" depart="213.20" from="223503127#7" to="524558206#0"/>
    <trip id="165" depart="214.50" from="778007334#0" to="-5670226#5"/>
    <trip id="166" depart="215.80" from="608355937#1" to="-68668550#1"/>
    <trip id="167" depart="217.10" from="5670203#5" to="735173276#1"/>
    <trip id="168" depart="218.40" from="455687907#6" to="5673305#2"/>
    <trip id="169" depart="219.70" from="223503127#10" to="5670688#1"/>
    <trip id="170" depart="221.00" from="223503127#14" to="196116967#0"/>
    <trip id="171" depart="222.30" from="455688156" to="46577970#2"/>
    <trip id="172" depart="223.60" from="-455688156" to="745617599"/>
    <trip id="173" depart="224.90" from="5670203#0" to="5670226#5"/>
    <trip id="174" depart="226.20" from="-5673326" to="5670688#3"/>
    <trip id="175" depart="227.50" from="-5670226#0" to="577976192#8"/>
    <trip id="176" depart="228.80" from="608355937#1" to="5670405"/>
    <trip id="177" depart="230.10" from="-577976192#7" to="5670226#5"/>
    <trip id="178" depart="231.40" from="-778007334#0" to="-196116967#0"/>
    <trip id="179" depart="232.70" from="577976192#8" to="5672325"/>
    <trip id="180" depart="234.00" from="-455687907#0" to="-455687907#2"/>
    <trip id="181" depart="235.30" from="gneE6" to="196116967#0"/>
    <trip id="182" depart="236.60" from="5673305#1" to="525667720"/>
    <trip id="183" depart="237.90" from="5673106#2" to="-577976192#10"/>
    <trip id="184" depart="239.20" from="223503127#8" to="524558206#0"/>
    <trip id="185" depart="240.50" from="gneE12" to="gneE9"/>
    <trip id="186" depart="241.80" from="-577976192#9" to="5670405"/>
    <trip id="187" depart="243.10" from="165473832#2" to="-455687907#3"/>
    <trip id="188" depart="244.40" from="223503127#7" to="gneE12"/>
    <trip id="189" depart="245.70" from="-5673326" to="-608355942"/>
    <trip id="190" depart="247.00" from="5670226#5" to="5670688#4"/>
    <trip id="191" depart="248.30" from="gneE12" to="46577970#2"/>
    <trip id="192" depart="249.60" from="-735173276#0" to="455687907#1"/>
    <trip id="193" depart="250.90" from="5670203#4" to="577976192#8"/>
    <trip id="194" depart="252.20" from="5670688#3" to="542225570"/>
    <trip id="195" depart="253.50" from="gneE10" to="243056525#0"/>
    <trip id="196" depart="254.80" from="455687907#4" to="-46568321#1"/>
    <trip id="197" depart="256.10" from="5673106#2" to="-577976192#12"/>
    <trip id="198" depart="257.40" from="5670203#3" to="5673106#1"/>
    <trip id="199" depart="258.70" from="577976192#11" to="gneE5"/>
    <trip id="200" depart="260.00" from="5673106#2" to="223503127#11"/>
    <trip id="201" depart="261.30" from="-455687907#0" to="223503127#8"/>
    <trip id="202" depart="262.60" from="5670226#1" to="195743146#0"/>
    <trip id="203" depart="263.90" from="243056525#0" to="195743194#2"/>
    <trip id="204" depart="265.20" from="195743146#2" to="455687907#2"/>
    <trip id="205" depart="266.50" from="5670735#1" to="735173276#1"/>
    <trip id="206" depart="267.80" from="5673305#0" to="5670405"/>
    <trip id="207" depart="269.10" from="524558207" to="196116967#0"/>
    <trip id="208" depart="270.40" from="577976192#9" to="5670688#1"/>
    <trip id="209" depart="271.70" from="243056525#1" to="5670688#3"/>
    <trip id="210" depart="273.00" from="-455687907#5" to="5671137#2"/>
    <trip id="211" depart="274.30" from="5670735#1" to="525667715#1"/>
    <trip id="212" depart="275.60" from="669779837" to="195743146#6"/>
    <trip id="213" depart="276.90" from="524558206#0" to="-455687907#4"/>
    <trip id="214" depart="278.20" from="gneE6" to="gneE4"/>
    <trip id="215" depart="279.50" from="165473832#3" to="-165473832#3"/>
    <trip id="216" depart="280.80" from="5671257#1" to="223503127#8"/>
    <trip id="217" depart="282.10" from="196116967#0" to="5670203#5"/>
    <trip id="218" depart="283.40" from="669779837" to="gneE5"/>
    <trip id="219" depart="284.70" from="455687907#6" to="-735173276#1"/>
    <trip id="220" depart="286.00" from="5671137#1" to="223503127#7"/>
    <trip id="221" depart="287.30" from="5673305#0" to="-497252083#3"/>
    <trip id="222" depart="288.60" from="gneE4" to="735173276#0"/>
    <trip id="223" depart="289.90" from="542225570" to="-455687907#4"/>
    <trip id="224" depart="291.20" from="5670735#1" to="68668550#1"/>
    <trip id="225" depart="292.50" from="5670226#3" to="5673106#2"/>
    <trip id="226" depart="293.80" from="5673106#3" to="234726492#3"/>
    <trip id="227" depart="295.10" from="196117053#1" to="5670203#4"/>
    <trip id="228" depart="296.40" from="gneE0" to="gneE5"/>
    <trip id="229" depart="297.70" from="5670688#3" to="5673305#0"/>
    <trip id="230" depart="299.00" from="196117053#1" to="-196116967#1"/>
    <trip id="231" depart="300.30" from="577976192#11" to="195743146#3"/>
    <trip id="232" depart="301.60" from="5671137#1" to="-196116967#0"/>
    <trip id="233" depart="302.90" from="243056525#4" to="46568321#1"/>
    <trip id="234" depart="304.20" from="195743146#1" to="196116967#1"/>
    <trip id="235" depart="305.50" from="-5670735#1" to="46577970#1"/>
    <trip id="236" depart="306.80" from="5671137#0" to="165473832#2"/>
    <trip id="237" depart="308.10" from="-577976192#11" to="-735173276#1"/>
    <trip id="238" depart="309.40" from="497252083#3" to="5670226#1"/>
    <trip id="239" depart="310.70" from="778007334#0" to="455687907#5"/>
    <trip id="240" depart="312.00" from="525667715#1" to="455688156"/>
    <trip id="241" depart="313.30" from="525667719" to="5672325"/>
    <trip id="242" depart="314.60" from="5673106#1" to="-455687907#1"/>
    <trip id="243" depart="315.90" from="608355937#0" to="gneE8"/>
    <trip id="244" depart="317.20" from="5671781" to="5672325"/>
    <trip id="245" depart="318.50" from="195743146#2" to="gneE4"/>
    <trip id="246" depart="319.80" from="gneE5" to="196117053#1"/>
    <trip id="247" depart="321.10" from="gneE8" to="243056525#2"/>
    <trip id="248" depart="322.40" from="5671257#1" to="5671137#2"/>
    <trip id="249" depart="323.70" from="524558206#0" to="5670688#0"/>
    <trip id="250" depart="325.00" from="5670226#5" to="-524558207"/>
    <trip id="251" depart="326.30" from="-455687907#0" to="195743146#2"/>
    <trip id="253" depart="328.90" from="223503127#11" to="455688156"/>
    <trip id="254" depart="330.20" from="195743146#3" to="-165473832#2"/>
    <trip id="255" depart="331.50" from="525667715#1" to="577976192#11"/>
    <trip id="256" depart="332.80" from="828308000" to="223503127#9"/>
    <trip id="257" depart="334.10" from="-196116967#0" to="5671137#1"/>
    <trip id="258" depart="335.40" from="-608355942" to="-735173276#0"/>
    <trip id="259" depart="336.70" from="195743146#3" to="gneE12"/>
    <trip id="260" depart="338.00" from="-778007334#0" to="5670203#0"/>
    <trip id="261" depart="339.30" from="-196116967#1" to="577976192#12"/>
    <trip id="262" depart="340.60" from="778007334#1" to="243056525#4"/>
    <trip id="263" depart="341.90" from="196116967#0" to="46577970#1"/>
    <trip id="264" depart="343.20" from="-196117053#1" to="196117053#1"/>
    <trip id="265" depart="344.50" from="46577970#1" to="455687907#6"/>
    <trip id="266" depart="345.80" from="-778007334#0" to="455687907#2"/>
    <trip id="267" depart="347.10" from="-196116967#1" to="5670226#0"/>
    <trip id="268" depart="348.40" from="5670203#0" to="-196116967#0"/>
    <trip id="269" depart="349.70" from="243056525#2" to="778007334#1"/>
    <trip id="270" depart="351.00" from="gneE12" to="243056525#3"/>
    <trip id="271" depart="352.30" from="525667719" to="669779837"/>
    <trip id="272" depart="353.60" from="gneE4" to="455687907#1"/>
    <trip id="273" depart="354.90" from="195743146#4" to="-5673326"/>
    <trip id="274" depart="356.20" from="195743146#5" to="234726492#1"/>
    <trip id="275" depart="357.50" from="-5670735#1" to="5673305#0"/>
    <trip id="276" depart="358.80" from="gneE0" to="-735173276#0"/>
    <trip id="277" depart="360.10" from="608355942" to="669779837"/>
    <trip id="278" depart="361.40" from="-5670735#1" to="195743146#5"/>
    <trip id="279" depart="362.70" from="525667716" to="5673305#2"/>
    <trip id="280" depart="364.00" from="577976192#11" to="195743194#0"/>
    <trip id="281" depart="365.30" from="195743146#2" to="243056525#3"/>
    <trip id="282" depart="366.60" from="5673305#2" to="46568321#1"/>
    <trip id="283" depart="367.90" from="735173541#0" to="5673326"/>
    <trip id="284" depart="369.20" from="gneE4" to="455687907#0"/>
    <trip id="285" depart="370.50" from="234726492#3" to="525667720"/>
    <trip id="286" depart="371.80" from="5673106#3" to="-455687907#3"/>
    <trip id="287" depart="373.10" from="gneE8" to="-735173276#1"/>
    <trip id="288" depart="374.40" from="455687907#7" to="gneE7"/>
    <trip id="289" depart="375.70" from="455687907#4" to="455687907#3"/>
    <trip id="290" depart="377.00" from="-455687907#4" to="223503127#13"/>
    <trip id="291" depart="378.30" from="243056525#1" to="524558206#0"/>
    <trip id="292" depart="379.60" from="455687907#5" to="195743146#6"/>
    <trip id="293" depart="380.90" from="5670226#5" to="-455688156"/>
    <trip id="294" depart="382.20" from="gneE7" to="-5670226#1"/>
    <trip id="295" depart="383.50" from="195743150#0" to="234726492#2"/>
    <trip id="296" depart="384.80" from="-5670226#5" to="455688156"/>
    <trip id="297" depart="386.10" from="243056525#4" to="455688156"/>
    <trip id="298" depart="387.40" from="-195743206" to="195743146#5"/>
    <trip id="299" depart="388.70" from="5671137#2" to="5673305#6"/>
    <trip id="300" depart="390.00" from="gneE12" to="195743150#0"/>
    <trip id="301" depart="391.30" from="-497252083#3" to="778007334#1"/>
    <trip id="302" depart="392.60" from="223503127#9" to="196117053#1"/>
    <trip id="303" depart="393.90" from="5671331" to="735173276#1"/>
    <trip id="304" depart="395.20" from="5670226#1" to="223503127#14"/>
    <trip id="305" depart="396.50" from="577976192#7" to="5670203#4"/>
    <trip id="306" depart="397.80" from="gneE6" to="195743194#2"/>
    <trip id="307" depart="399.10" from="525667719" to="-735173276#0"/>
    <trip id="308" depart="400.40" from="68668550#1" to="-234726497#3"/>
    <trip id="309" depart="401.70" from="525667719" to="gneE12"/>
    <trip id="310" depart="403.00" from="5673326" to="5671257#0"/>
    <trip id="311" depart="404.30" from="455688156" to="5670226#5"/>
    <trip id="312" depart="405.60" from="525667715#1" to="5670688#1"/>
    <trip id="313" depart="406.90" from="223503127#10" to="234726497#3"/>
    <trip id="314" depart="408.20" from="-455687907#1" to="gneE0"/>
    <trip id="315" depart="409.50" from="5671257#2" to="195743146#0"/>
    <trip id="316" depart="410.80" from="223503127#9" to="-778007334#0"/>
    <trip id="317" depart="412.10" from="-455687907#5" to="-497252083#3"/>
    <trip id="318" depart="413.40" from="524558206#0" to="-577976192#12"/>
    <trip id="319" depart="414.70" from="gneE12" to="-497252083#3"/>
    <trip id="320" depart="416.00" from="5671137#1" to="243056525#0"/>
    <trip id="321" depart="417.30" from="5670688#1" to="223503127#9"/>
    <trip id="322" depart="418.60" from="577976192#7" to="524558206#0"/>
    <trip id="323" depart="419.90" from="gneE12" to="577976192#8"/>
    <trip id="324" depart="421.20" from="5670203#3" to="223503127#14"/>
    <trip id="325" depart="422.50" from="497252083#3" to="455688156"/>
    <trip id="326" depart="423.80" from="gneE10" to="5671331"/>
    <trip id="327" depart="425.10" from="-68668550#1" to="-577976192#11"/>
    <trip id="328" depart="426.40" from="-196116967#0" to="5670226#3"/>
    <trip id="329" depart="427.70" from="5671331" to="195743194#0"/>
    <trip id="330" depart="429.00" from="455687907#5" to="-455687907#5"/>
    <trip id="331" depart="430.30" from="-577976192#7" to="-5670735#1"/>
    <trip id="332" depart="431.60" from="5673106#1" to="195743146#3"/>
    <trip id="333" depart="432.90" from="577976192#9" to="5670203#4"/>
    <trip id="334" depart="434.20" from="5671137#3" to="577976192#8"/>
    <trip id="335" depart="435.50" from="5670203#5" to="223503127#7"/>
    <trip id="336" depart="436.80" from="5670688#2" to="-46568321#1"/>
    <trip id="337" depart="438.10" from="243056524#1" to="223503127#7"/>
    <trip id="338" depart="439.40" from="-577976192#10" to="-455687907#5"/>
    <trip id="339" depart="440.70" from="455687907#3" to="455687907#7"/>
    <trip id="340" depart="442.00" from="gneE5" to="5673106#2"/>
    <trip id="341" depart="443.30" from="46577970#1" to="5673305#2"/>
    <trip id="342" depart="444.60" from="577976192#8" to="-195743206"/>
    <trip id="343" depart="445.90" from="5670688#0" to="243056525#1"/>
    <trip id="344" depart="447.20" from="5673305#1" to="577976192#13"/>
    <trip id="345" depart="448.50" from="-196117053#1" to="5673305#2"/>
    <trip id="346" depart="449.80" from="828307999" to="5671781"/>
    <trip id="347" depart="451.10" from="5670226#1" to="828308000"/>
    <trip id="348" depart="452.40" from="778007334#1" to="-778007334#1"/>
    <trip id="349" depart="453.70" from="5672325" to="195743146#5"/>
    <trip id="350" depart="455.00" from="-778007334#1" to="-577976192#7"/>
    <trip id="351" depart="456.30" from="5673305#6" to="234726492#2"/>
    <trip id="352" depart="457.60" from="-455687907#0" to="5670203#4"/>