<?xml version="1.0" encoding="UTF-8"?>

<!-- generated on 2021-12-23 13:57:37 by Eclipse SUMO netedit Version 1.10.0
<configuration xmlns:xsi="http://www.w3.org/2001/XMLSchema-instance" xsi:noNamespaceSchemaLocation="http://sumo.dlr.de/xsd/netconvertConfiguration.xsd">

    <input>
        <sumo-net-file value="/Users/yunhaowang/Desktop/sumo-gym/assets/data/cosmos/manhattan_0_refine.net.xml"/>
    </input>

    <output>
        <output-file value="/Users/yunhaowang/Desktop/sumo-gym/assets/data/cosmos/manhattan_0_refine.net.xml"/>
    </output>

    <processing>
        <geometry.min-radius.fix.railways value="false"/>
        <geometry.max-grade.fix value="false"/>
        <offset.disable-normalization value="true"/>
        <lefthand value="false"/>
    </processing>

    <junctions>
        <no-turnarounds value="true"/>
        <junctions.corner-detail value="5"/>
        <junctions.limit-turn-speed value="5.5"/>
        <rectangular-lane-cut value="false"/>
    </junctions>

    <pedestrian>
        <walkingareas value="false"/>
    </pedestrian>

    <netedit>
        <additional-files value="/Users/yunhaowang/Desktop/sumo-gym/assets/data/cosmos/manhattan.cs.add.xml"/>
    </netedit>

    <report>
        <aggregate-warnings value="5"/>
    </report>

</configuration>
-->
<additional xmlns:xsi="http://www.w3.org/2001/XMLSchema-instance" xsi:noNamespaceSchemaLocation="http://sumo.dlr.de/xsd/additional_file.xsd">
    <chargingStation id="0" lane="-735173276#0_1" startPos="31.23" endPos="36.23"/>
    <chargingStation id="1" lane="735173276#0_1" startPos="42.52" endPos="47.52"/>
</additional>
