<?xml version="1.0" encoding="UTF-8"?>

<net version="1.3" junctionCornerDetail="5" limitTurnSpeed="5.50" xmlns:xsi="http://www.w3.org/2001/XMLSchema-instance" xsi:noNamespaceSchemaLocation="http://sumo.dlr.de/xsd/net_file.xsd">

    <location netOffset="-587554.72,-4518359.84" convBoundary="241.55,635.45,1345.30,1797.23" origBoundary="-73.961801,40.804425,-73.936284,40.849076" projParameter="+proj=utm +zone=18 +ellps=WGS84 +datum=WGS84 +units=m +no_defs"/>

    <type id="highway.bridleway" priority="1" numLanes="1" speed="2.78" allow="pedestrian" oneway="1" width="2.00"/>
    <type id="highway.bus_guideway" priority="1" numLanes="1" speed="27.78" allow="bus" oneway="1"/>
    <type id="highway.cycleway" priority="1" numLanes="1" speed="8.33" allow="bicycle" oneway="0" width="1.00"/>
    <type id="highway.footway" priority="1" numLanes="1" speed="2.78" allow="pedestrian" oneway="1" width="2.00"/>
    <type id="highway.ford" priority="1" numLanes="1" speed="2.78" allow="army" oneway="0"/>
    <type id="highway.living_street" priority="2" numLanes="1" speed="2.78" disallow="tram rail_urban rail rail_electric rail_fast ship" oneway="0"/>
    <type id="highway.motorway" priority="14" numLanes="2" speed="39.44" allow="private emergency authority army vip passenger hov taxi bus coach delivery truck trailer motorcycle evehicle custom1 custom2" oneway="1"/>
    <type id="highway.motorway_link" priority="9" numLanes="1" speed="22.22" allow="private emergency authority army vip passenger hov taxi bus coach delivery truck trailer motorcycle evehicle custom1 custom2" oneway="1"/>
    <type id="highway.path" priority="1" numLanes="1" speed="2.78" allow="pedestrian bicycle" oneway="1" width="2.00"/>
    <type id="highway.pedestrian" priority="1" numLanes="1" speed="2.78" allow="pedestrian" oneway="1" width="2.00"/>
    <type id="highway.primary" priority="12" numLanes="2" speed="27.78" disallow="tram rail_urban rail rail_electric rail_fast ship" oneway="0"/>
    <type id="highway.primary_link" priority="7" numLanes="1" speed="22.22" disallow="tram rail_urban rail rail_electric rail_fast ship" oneway="0"/>
    <type id="highway.raceway" priority="15" numLanes="2" speed="83.33" allow="vip" oneway="0"/>
    <type id="highway.residential" priority="3" numLanes="1" speed="13.89" disallow="tram rail_urban rail rail_electric rail_fast ship" oneway="0"/>
    <type id="highway.secondary" priority="11" numLanes="2" speed="27.78" disallow="tram rail_urban rail rail_electric rail_fast ship" oneway="0"/>
    <type id="highway.secondary_link" priority="6" numLanes="1" speed="22.22" disallow="tram rail_urban rail rail_electric rail_fast ship" oneway="0"/>
    <type id="highway.service" priority="1" numLanes="1" speed="5.56" allow="pedestrian delivery bicycle" oneway="0"/>
    <type id="highway.stairs" priority="1" numLanes="1" speed="1.39" allow="pedestrian" oneway="1" width="2.00"/>
    <type id="highway.step" priority="1" numLanes="1" speed="1.39" allow="pedestrian" oneway="1" width="2.00"/>
    <type id="highway.steps" priority="1" numLanes="1" speed="1.39" allow="pedestrian" oneway="1" width="2.00"/>
    <type id="highway.tertiary" priority="10" numLanes="1" speed="22.22" disallow="tram rail_urban rail rail_electric rail_fast ship" oneway="0"/>
    <type id="highway.tertiary_link" priority="5" numLanes="1" speed="22.22" disallow="tram rail_urban rail rail_electric rail_fast ship" oneway="0"/>
    <type id="highway.track" priority="1" numLanes="1" speed="5.56" disallow="tram rail_urban rail rail_electric rail_fast ship" oneway="0"/>
    <type id="highway.trunk" priority="13" numLanes="2" speed="27.78" disallow="pedestrian bicycle tram rail_urban rail rail_electric rail_fast ship" oneway="0"/>
    <type id="highway.trunk_link" priority="8" numLanes="1" speed="22.22" disallow="pedestrian bicycle tram rail_urban rail rail_electric rail_fast ship" oneway="0"/>
    <type id="highway.unclassified" priority="4" numLanes="1" speed="13.89" disallow="tram rail_urban rail rail_electric rail_fast ship" oneway="0"/>
    <type id="highway.unsurfaced" priority="1" numLanes="1" speed="8.33" disallow="tram rail_urban rail rail_electric rail_fast ship" oneway="0"/>
    <type id="railway.highspeed" priority="21" numLanes="1" speed="69.44" allow="rail_fast" oneway="1"/>
    <type id="railway.light_rail" priority="19" numLanes="1" speed="27.78" allow="rail_urban" oneway="1"/>
    <type id="railway.preserved" priority="16" numLanes="1" speed="27.78" allow="rail" oneway="1"/>
    <type id="railway.rail" priority="20" numLanes="1" speed="44.44" allow="rail" oneway="1"/>
    <type id="railway.subway" priority="18" numLanes="1" speed="27.78" allow="rail_urban" oneway="1"/>
    <type id="railway.tram" priority="17" numLanes="1" speed="13.89" allow="tram" oneway="1"/>

    <edge id=":1_0" function="internal">
        <lane id=":1_0_0" index="0" disallow="tram rail_urban rail rail_electric rail_fast ship" speed="8.55" length="17.26" shape="244.30,947.14 242.78,943.31 243.26,939.73 245.72,936.42 250.17,933.36"/>
    </edge>
    <edge id=":1_1" function="internal">
        <lane id=":1_1_0" index="0" disallow="tram rail_urban rail rail_electric rail_fast ship" speed="3.65" length="4.67" shape="244.30,947.14 244.33,945.70 244.80,944.93 245.69,944.84 247.00,945.43"/>
    </edge>
    <edge id=":1_2" function="internal">
        <lane id=":1_2_0" index="0" disallow="tram rail_urban rail rail_electric rail_fast ship" speed="6.36" length="9.04" shape="251.68,936.18 249.67,937.66 248.67,939.42 248.68,941.43 249.71,943.72"/>
    </edge>
    <edge id=":1_3" function="internal">
        <lane id=":1_3_0" index="0" disallow="tram rail_urban rail rail_electric rail_fast ship" speed="3.65" length="4.67" shape="251.68,936.18 250.25,936.04 249.52,935.53 249.49,934.63 250.17,933.36"/>
    </edge>
    <edge id=":10_0" function="internal">
        <lane id=":10_0_0" index="0" speed="13.89" length="34.95" shape="677.81,1543.91 670.60,1539.79 662.80,1534.77 655.23,1529.40 648.72,1524.25"/>
        <lane id=":10_0_1" index="1" speed="13.89" length="34.95" shape="679.31,1541.08 672.15,1537.00 664.48,1532.05 657.04,1526.76 650.58,1521.64"/>
    </edge>
    <edge id=":10_2" function="internal">
        <lane id=":10_2_0" index="0" disallow="tram rail_urban rail rail_electric rail_fast ship" speed="7.60" length="11.25" shape="679.31,1541.08 675.07,1538.01 673.87,1534.81 675.13,1532.53"/>
    </edge>
    <edge id=":10_3" function="internal">
        <lane id=":10_3_0" index="0" disallow="tram rail_urban rail rail_electric rail_fast ship" speed="3.64" length="2.32" shape="679.31,1541.08 678.62,1539.82 678.64,1538.93"/>
    </edge>
    <edge id=":10_10" function="internal">
        <lane id=":10_10_0" index="0" disallow="tram rail_urban rail rail_electric rail_fast ship" speed="7.60" length="7.13" shape="675.13,1532.53 675.70,1531.50 680.56,1528.06"/>
    </edge>
    <edge id=":10_11" function="internal">
        <lane id=":10_11_0" index="0" disallow="tram rail_urban rail rail_electric rail_fast ship" speed="3.64" length="2.32" shape="678.64,1538.93 679.37,1538.42 680.79,1538.27"/>
    </edge>
    <edge id=":10_4" function="internal">
        <lane id=":10_4_0" index="0" disallow="tram rail_urban rail rail_electric rail_fast ship" speed="12.17" length="29.24" shape="657.15,1513.37 664.49,1521.39 670.84,1526.51 676.19,1528.73 680.56,1528.06"/>
    </edge>
    <edge id=":10_5" function="internal">
        <lane id=":10_5_0" index="0" disallow="tram rail_urban rail rail_electric rail_fast ship" speed="20.84" length="33.57" shape="657.15,1513.37 661.18,1517.78 667.60,1524.10 675.08,1530.56 682.28,1535.44"/>
    </edge>
    <edge id=":10_6" function="internal">
        <lane id=":10_6_0" index="0" disallow="tram rail_urban rail rail_electric rail_fast ship" speed="13.39" length="29.90" shape="654.32,1516.40 662.99,1523.04 670.25,1527.20 676.10,1528.87 680.56,1528.06"/>
    </edge>
    <edge id=":10_7" function="internal">
        <lane id=":10_7_0" index="0" disallow="tram rail_urban rail rail_electric rail_fast ship" speed="27.78" length="34.09" shape="654.32,1516.40 660.67,1521.43 667.86,1526.58 675.26,1531.40 682.28,1535.44"/>
        <lane id=":10_7_1" index="1" disallow="tram rail_urban rail rail_electric rail_fast ship" speed="27.78" length="34.09" shape="652.46,1519.01 658.87,1524.08 666.18,1529.31 673.71,1534.20 680.79,1538.27"/>
    </edge>
    <edge id=":10_9" function="internal">
        <lane id=":10_9_0" index="0" speed="3.66" length="2.46" shape="652.46,1519.01 652.97,1520.37 652.83,1521.26 652.74,1521.31"/>
    </edge>
    <edge id=":10_12" function="internal">
        <lane id=":10_12_0" index="0" speed="3.66" length="2.26" shape="652.74,1521.31 652.04,1521.69 650.58,1521.64"/>
    </edge>
    <edge id=":11_0" function="internal">
        <lane id=":11_0_0" index="0" speed="20.84" length="11.66" shape="729.35,1596.73 723.64,1586.49"/>
        <lane id=":11_0_1" index="1" speed="20.84" length="11.66" shape="732.11,1595.11 726.47,1585.00"/>
    </edge>
    <edge id=":11_2" function="internal">
        <lane id=":11_2_0" index="0" disallow="tram rail_urban rail rail_electric rail_fast ship" speed="3.65" length="2.34" shape="732.11,1595.11 732.19,1593.67 732.67,1592.92"/>
    </edge>
    <edge id=":11_8" function="internal">
        <lane id=":11_8_0" index="0" disallow="tram rail_urban rail rail_electric rail_fast ship" speed="3.65" length="2.34" shape="732.67,1592.92 733.57,1592.86 734.87,1593.49"/>
    </edge>
    <edge id=":11_3" function="internal">
        <lane id=":11_3_0" index="0" disallow="tram rail_urban rail rail_electric rail_fast ship" speed="6.42" length="9.03" shape="739.74,1584.30 737.73,1585.78 736.71,1587.53 736.68,1589.56 737.62,1591.86"/>
    </edge>
    <edge id=":11_4" function="internal">
        <lane id=":11_4_0" index="0" speed="8.09" length="14.65" shape="739.74,1584.30 734.92,1586.49 731.11,1587.33 728.29,1586.84 726.47,1585.00"/>
    </edge>
    <edge id=":11_5" function="internal">
        <lane id=":11_5_0" index="0" disallow="tram rail_urban rail rail_electric rail_fast ship" speed="27.78" length="11.35" shape="732.06,1582.05 737.62,1591.86"/>
        <lane id=":11_5_1" index="1" disallow="tram rail_urban rail rail_electric rail_fast ship" speed="27.78" length="11.35" shape="729.23,1583.54 734.87,1593.49"/>
    </edge>
    <edge id=":11_7" function="internal">
        <lane id=":11_7_0" index="0" speed="3.63" length="2.28" shape="729.23,1583.54 729.08,1584.94 728.58,1585.65"/>
    </edge>
    <edge id=":11_9" function="internal">
        <lane id=":11_9_0" index="0" speed="3.63" length="2.28" shape="728.58,1585.65 727.70,1585.67 726.47,1585.00"/>
    </edge>
    <edge id=":12_0" function="internal">
        <lane id=":12_0_0" index="0" disallow="tram rail_urban rail rail_electric rail_fast ship" speed="27.78" length="11.16" shape="769.32,1664.32 763.50,1654.74"/>
        <lane id=":12_0_1" index="1" disallow="tram rail_urban rail rail_electric rail_fast ship" speed="27.78" length="11.16" shape="772.03,1662.62 766.26,1653.12"/>
    </edge>
    <edge id=":12_2" function="internal">
        <lane id=":12_2_0" index="0" disallow="tram rail_urban rail rail_electric rail_fast ship" speed="7.92" length="3.80" shape="772.03,1662.62 771.31,1660.05 771.70,1659.00"/>
    </edge>
    <edge id=":12_3" function="internal">
        <lane id=":12_3_0" index="0" disallow="tram rail_urban rail rail_electric rail_fast ship" speed="3.65" length="2.34" shape="772.03,1662.62 772.08,1661.18 772.54,1660.42"/>
    </edge>
    <edge id=":12_8" function="internal">
        <lane id=":12_8_0" index="0" disallow="tram rail_urban rail rail_electric rail_fast ship" speed="7.92" length="10.76" shape="771.70,1659.00 772.29,1657.41 774.99,1654.68 779.41,1651.88"/>
    </edge>
    <edge id=":12_9" function="internal">
        <lane id=":12_9_0" index="0" disallow="tram rail_urban rail rail_electric rail_fast ship" speed="3.65" length="2.34" shape="772.54,1660.42 773.43,1660.33 774.75,1660.93"/>
    </edge>
    <edge id=":12_4" function="internal">
        <lane id=":12_4_0" index="0" disallow="tram rail_urban rail rail_electric rail_fast ship" speed="6.56" length="8.93" shape="771.77,1649.87 773.28,1651.74 775.05,1652.70 777.09,1652.74 779.41,1651.88"/>
    </edge>
    <edge id=":12_5" function="internal">
        <lane id=":12_5_0" index="0" disallow="tram rail_urban rail rail_electric rail_fast ship" speed="27.78" length="10.99" shape="771.77,1649.87 777.46,1659.23"/>
        <lane id=":12_5_1" index="1" disallow="tram rail_urban rail rail_electric rail_fast ship" speed="27.78" length="10.99" shape="769.01,1651.50 774.75,1660.93"/>
    </edge>
    <edge id=":12_7" function="internal">
        <lane id=":12_7_0" index="0" disallow="tram rail_urban rail rail_electric rail_fast ship" speed="3.65" length="2.34" shape="769.01,1651.50 768.93,1652.94 768.45,1653.69"/>
    </edge>
    <edge id=":12_10" function="internal">
        <lane id=":12_10_0" index="0" disallow="tram rail_urban rail rail_electric rail_fast ship" speed="3.65" length="2.34" shape="768.45,1653.69 767.55,1653.75 766.26,1653.12"/>
    </edge>
    <edge id=":13_0" function="internal">
        <lane id=":13_0_0" index="0" disallow="tram rail_urban rail rail_electric rail_fast ship" speed="27.78" length="22.14" shape="819.84,1742.28 815.87,1737.38 812.91,1733.51 810.15,1729.51 806.76,1724.20"/>
        <lane id=":13_0_1" index="1" disallow="tram rail_urban rail rail_electric rail_fast ship" speed="27.78" length="22.14" shape="822.32,1740.26 818.39,1735.41 815.51,1731.65 812.82,1727.77 809.47,1722.51"/>
    </edge>
    <edge id=":13_2" function="internal">
        <lane id=":13_2_0" index="0" disallow="tram rail_urban rail rail_electric rail_fast ship" speed="8.99" length="7.34" shape="822.32,1740.26 819.28,1735.20 819.14,1733.76"/>
    </edge>
    <edge id=":13_3" function="internal">
        <lane id=":13_3_0" index="0" disallow="tram rail_urban rail rail_electric rail_fast ship" speed="3.65" length="2.34" shape="822.32,1740.26 822.18,1738.82 822.55,1738.01"/>
    </edge>
    <edge id=":13_11" function="internal">
        <lane id=":13_11_0" index="0" disallow="tram rail_urban rail rail_electric rail_fast ship" speed="8.99" length="13.58" shape="819.14,1733.76 818.84,1730.66 821.00,1726.65 825.76,1723.16"/>
    </edge>
    <edge id=":13_12" function="internal">
        <lane id=":13_12_0" index="0" disallow="tram rail_urban rail rail_electric rail_fast ship" speed="3.65" length="2.34" shape="822.55,1738.01 823.42,1737.81 824.80,1738.24"/>
    </edge>
    <edge id=":13_4" function="internal">
        <lane id=":13_4_0" index="0" disallow="tram rail_urban rail rail_electric rail_fast ship" speed="6.13" length="9.06" shape="828.77,1728.81 826.71,1730.32 825.77,1732.06 825.96,1734.02 827.28,1736.21"/>
    </edge>
    <edge id=":13_5" function="internal">
        <lane id=":13_5_0" index="0" disallow="tram rail_urban rail rail_electric rail_fast ship" speed="9.73" length="20.35" shape="827.27,1725.99 821.76,1728.11 816.96,1728.23 812.86,1726.37 809.47,1722.51"/>
    </edge>
    <edge id=":13_6" function="internal">
        <lane id=":13_6_0" index="0" disallow="tram rail_urban rail rail_electric rail_fast ship" speed="3.65" length="2.34" shape="827.27,1725.99 825.83,1725.84 825.10,1725.33"/>
    </edge>
    <edge id=":13_13" function="internal">
        <lane id=":13_13_0" index="0" disallow="tram rail_urban rail rail_electric rail_fast ship" speed="3.65" length="2.34" shape="825.10,1725.33 825.08,1724.43 825.76,1723.16"/>
    </edge>
    <edge id=":13_7" function="internal">
        <lane id=":13_7_0" index="0" disallow="tram rail_urban rail rail_electric rail_fast ship" speed="7.16" length="10.56" shape="814.90,1719.11 816.57,1720.94 818.69,1721.75 821.26,1721.55 824.26,1720.34"/>
    </edge>
    <edge id=":13_8" function="internal">
        <lane id=":13_8_0" index="0" disallow="tram rail_urban rail rail_electric rail_fast ship" speed="27.78" length="21.34" shape="814.90,1719.11 818.18,1724.27 820.71,1727.94 823.42,1731.46 827.28,1736.21"/>
        <lane id=":13_8_1" index="1" disallow="tram rail_urban rail rail_electric rail_fast ship" speed="27.78" length="21.34" shape="812.18,1720.81 815.50,1726.02 818.11,1729.80 820.91,1733.44 824.80,1738.24"/>
    </edge>
    <edge id=":13_10" function="internal">
        <lane id=":13_10_0" index="0" disallow="tram rail_urban rail rail_electric rail_fast ship" speed="3.65" length="2.34" shape="812.18,1720.81 812.14,1722.25 811.67,1723.01"/>
    </edge>
    <edge id=":13_14" function="internal">
        <lane id=":13_14_0" index="0" disallow="tram rail_urban rail rail_electric rail_fast ship" speed="3.65" length="2.34" shape="811.67,1723.01 810.78,1723.10 809.47,1722.51"/>
    </edge>
    <edge id=":14_0" function="internal">
        <lane id=":14_0_0" index="0" disallow="tram rail_urban rail rail_electric rail_fast ship" speed="6.55" length="7.84" shape="872.19,1791.33 873.73,1792.76 875.40,1793.47 877.22,1793.46 879.19,1792.72"/>
    </edge>
    <edge id=":14_1" function="internal">
        <lane id=":14_1_0" index="0" disallow="tram rail_urban rail rail_electric rail_fast ship" speed="3.65" length="4.67" shape="869.71,1793.35 869.85,1794.79 869.48,1795.60 868.61,1795.80 867.23,1795.37"/>
    </edge>
    <edge id=":15_0" function="internal">
        <lane id=":15_0_0" index="0" disallow="tram rail_urban rail rail_electric rail_fast ship" speed="6.49" length="9.03" shape="966.65,1745.66 968.64,1744.19 969.68,1742.43 969.76,1740.40 968.89,1738.08"/>
    </edge>
    <edge id=":15_1" function="internal">
        <lane id=":15_1_0" index="0" disallow="tram rail_urban rail rail_electric rail_fast ship" speed="13.89" length="14.41" shape="966.65,1745.66 979.31,1738.77"/>
    </edge>
    <edge id=":16_0" function="internal">
        <lane id=":16_0_0" index="0" disallow="tram rail_urban rail rail_electric rail_fast ship" speed="6.51" length="9.03" shape="989.39,1726.91 990.86,1728.90 992.62,1729.94 994.66,1730.04 996.98,1729.18"/>
    </edge>
    <edge id=":16_1" function="internal">
        <lane id=":16_1_0" index="0" disallow="tram rail_urban rail rail_electric rail_fast ship" speed="13.89" length="14.40" shape="984.31,1736.02 996.98,1729.18"/>
    </edge>
    <edge id=":17_0" function="internal">
        <lane id=":17_0_0" index="0" disallow="tram rail_urban rail rail_electric rail_fast ship" speed="6.57" length="9.12" shape="935.99,1678.12 934.50,1676.14 932.72,1675.10 930.65,1675.01 928.30,1675.87"/>
    </edge>
    <edge id=":17_1" function="internal">
        <lane id=":17_1_0" index="0" disallow="tram rail_urban rail rail_electric rail_fast ship" speed="27.78" length="20.84" shape="935.99,1678.12 926.07,1659.77"/>
        <lane id=":17_1_1" index="1" disallow="tram rail_urban rail rail_electric rail_fast ship" speed="27.78" length="20.84" shape="938.80,1676.58 928.90,1658.27"/>
    </edge>
    <edge id=":17_3" function="internal">
        <lane id=":17_3_0" index="0" disallow="tram rail_urban rail rail_electric rail_fast ship" speed="8.14" length="14.65" shape="938.80,1676.58 936.59,1671.81 935.72,1668.01 936.20,1665.17 938.02,1663.30"/>
    </edge>
    <edge id=":17_4" function="internal">
        <lane id=":17_4_0" index="0" disallow="tram rail_urban rail rail_electric rail_fast ship" speed="27.78" length="14.57" shape="941.12,1668.90 928.30,1675.87"/>
        <lane id=":17_4_1" index="1" disallow="tram rail_urban rail rail_electric rail_fast ship" speed="27.78" length="14.57" shape="939.57,1666.10 926.79,1673.04"/>
    </edge>
    <edge id=":17_6" function="internal">
        <lane id=":17_6_0" index="0" disallow="tram rail_urban rail rail_electric rail_fast ship" speed="8.06" length="3.72" shape="939.57,1666.10 937.02,1666.65 936.00,1666.22"/>
    </edge>
    <edge id=":17_7" function="internal">
        <lane id=":17_7_0" index="0" disallow="tram rail_urban rail rail_electric rail_fast ship" speed="3.65" length="2.34" shape="939.57,1666.10 938.13,1665.98 937.39,1665.48"/>
    </edge>
    <edge id=":17_12" function="internal">
        <lane id=":17_12_0" index="0" disallow="tram rail_urban rail rail_electric rail_fast ship" speed="8.06" length="10.91" shape="936.00,1666.22 934.39,1665.53 931.69,1662.74 928.90,1658.27"/>
    </edge>
    <edge id=":17_13" function="internal">
        <lane id=":17_13_0" index="0" disallow="tram rail_urban rail rail_electric rail_fast ship" speed="3.65" length="2.34" shape="937.39,1665.48 937.36,1664.58 938.02,1663.30"/>
    </edge>
    <edge id=":17_8" function="internal">
        <lane id=":17_8_0" index="0" disallow="tram rail_urban rail rail_electric rail_fast ship" speed="6.52" length="9.08" shape="923.79,1667.39 925.78,1665.93 926.83,1664.17 926.93,1662.12 926.07,1659.77"/>
    </edge>
    <edge id=":17_9" function="internal">
        <lane id=":17_9_0" index="0" disallow="tram rail_urban rail rail_electric rail_fast ship" speed="27.78" length="14.46" shape="923.79,1667.39 936.46,1660.50"/>
        <lane id=":17_9_1" index="1" disallow="tram rail_urban rail rail_electric rail_fast ship" speed="27.78" length="14.46" shape="925.29,1670.22 938.02,1663.30"/>
    </edge>
    <edge id=":17_11" function="internal">
        <lane id=":17_11_0" index="0" disallow="tram rail_urban rail rail_electric rail_fast ship" speed="3.65" length="4.67" shape="925.29,1670.22 926.73,1670.36 927.45,1670.88 927.48,1671.78 926.79,1673.04"/>
    </edge>
    <edge id=":18_0" function="internal">
        <lane id=":18_0_0" index="0" disallow="tram rail_urban rail rail_electric rail_fast ship" speed="6.54" length="9.09" shape="959.28,1659.02 957.26,1660.52 956.21,1662.29 956.10,1664.33 956.95,1666.66"/>
    </edge>
    <edge id=":18_1" function="internal">
        <lane id=":18_1_0" index="0" disallow="tram rail_urban rail rail_electric rail_fast ship" speed="27.78" length="14.51" shape="959.28,1659.02 946.49,1665.92"/>
        <lane id=":18_1_1" index="1" disallow="tram rail_urban rail rail_electric rail_fast ship" speed="27.78" length="14.51" shape="957.75,1656.21 944.99,1663.09"/>
    </edge>
    <edge id=":18_3" function="internal">
        <lane id=":18_3_0" index="0" disallow="tram rail_urban rail rail_electric rail_fast ship" speed="3.65" length="2.34" shape="957.75,1656.21 956.31,1656.08 955.58,1655.57"/>
    </edge>
    <edge id=":18_12" function="internal">
        <lane id=":18_12_0" index="0" disallow="tram rail_urban rail rail_electric rail_fast ship" speed="3.65" length="2.34" shape="955.58,1655.57 955.54,1654.68 956.22,1653.40"/>
    </edge>
    <edge id=":18_4" function="internal">
        <lane id=":18_4_0" index="0" disallow="tram rail_urban rail rail_electric rail_fast ship" speed="6.49" length="9.03" shape="947.11,1648.33 948.58,1650.32 950.33,1651.37 952.36,1651.46 954.69,1650.59"/>
    </edge>
    <edge id=":18_5" function="internal">
        <lane id=":18_5_0" index="0" disallow="tram rail_urban rail rail_electric rail_fast ship" speed="27.78" length="20.80" shape="947.11,1648.33 956.95,1666.66"/>
    </edge>
    <edge id=":18_6" function="internal">
        <lane id=":18_6_0" index="0" disallow="tram rail_urban rail rail_electric rail_fast ship" speed="8.72" length="16.84" shape="947.11,1648.33 949.08,1653.18 949.38,1657.25 948.02,1660.56 944.99,1663.09"/>
    </edge>
    <edge id=":18_7" function="internal">
        <lane id=":18_7_0" index="0" disallow="tram rail_urban rail rail_electric rail_fast ship" speed="27.78" length="20.81" shape="944.29,1649.84 954.13,1668.17"/>
    </edge>
    <edge id=":18_8" function="internal">
        <lane id=":18_8_0" index="0" disallow="tram rail_urban rail rail_electric rail_fast ship" speed="27.78" length="14.44" shape="941.99,1657.43 954.69,1650.59"/>
        <lane id=":18_8_1" index="1" disallow="tram rail_urban rail rail_electric rail_fast ship" speed="27.78" length="14.44" shape="943.49,1660.26 956.22,1653.40"/>
    </edge>
    <edge id=":18_10" function="internal">
        <lane id=":18_10_0" index="0" disallow="tram rail_urban rail rail_electric rail_fast ship" speed="8.07" length="3.67" shape="943.49,1660.26 946.00,1659.73 947.02,1660.18"/>
    </edge>
    <edge id=":18_11" function="internal">
        <lane id=":18_11_0" index="0" disallow="tram rail_urban rail rail_electric rail_fast ship" speed="3.65" length="2.34" shape="943.49,1660.26 944.93,1660.41 945.66,1660.93"/>
    </edge>
    <edge id=":18_13" function="internal">
        <lane id=":18_13_0" index="0" disallow="tram rail_urban rail rail_electric rail_fast ship" speed="8.07" length="10.94" shape="947.02,1660.18 948.61,1660.88 951.32,1663.69 954.13,1668.17"/>
    </edge>
    <edge id=":18_14" function="internal">
        <lane id=":18_14_0" index="0" disallow="tram rail_urban rail rail_electric rail_fast ship" speed="3.65" length="2.34" shape="945.66,1660.93 945.68,1661.82 944.99,1663.09"/>
    </edge>
    <edge id=":19_0" function="internal">
        <lane id=":19_0_0" index="0" disallow="tram rail_urban rail rail_electric rail_fast ship" speed="27.78" length="11.23" shape="892.74,1597.15 887.42,1587.27"/>
        <lane id=":19_0_1" index="1" disallow="tram rail_urban rail rail_electric rail_fast ship" speed="27.78" length="11.23" shape="895.56,1595.65 890.23,1585.75"/>
    </edge>
    <edge id=":19_2" function="internal">
        <lane id=":19_2_0" index="0" disallow="tram rail_urban rail rail_electric rail_fast ship" speed="6.56" length="9.10" shape="895.56,1595.65 894.71,1593.30 894.80,1591.24 895.84,1589.46 897.83,1587.97"/>
    </edge>
    <edge id=":19_3" function="internal">
        <lane id=":19_3_0" index="0" disallow="tram rail_urban rail rail_electric rail_fast ship" speed="6.50" length="9.03" shape="885.16,1594.86 887.16,1593.39 888.20,1591.63 888.29,1589.60 887.42,1587.27"/>
    </edge>
    <edge id=":19_4" function="internal">
        <lane id=":19_4_0" index="0" disallow="tram rail_urban rail rail_electric rail_fast ship" speed="13.89" length="14.41" shape="885.16,1594.86 897.83,1587.97"/>
    </edge>
    <edge id=":2_0" function="internal">
        <lane id=":2_0_0" index="0" disallow="tram rail_urban rail rail_electric rail_fast ship" speed="20.84" length="14.69" shape="362.63,1076.91 359.10,1074.45 356.68,1072.76 354.15,1071.26 350.31,1069.37"/>
        <lane id=":2_0_1" index="1" disallow="tram rail_urban rail rail_electric rail_fast ship" speed="20.84" length="14.69" shape="364.35,1074.21 360.72,1071.69 358.22,1069.96 355.62,1068.42 351.66,1066.47"/>
    </edge>
    <edge id=":2_2" function="internal">
        <lane id=":2_2_0" index="0" disallow="tram rail_urban rail rail_electric rail_fast ship" speed="5.69" length="9.22" shape="367.66,1062.61 365.44,1064.24 364.66,1065.92 365.32,1067.65 367.42,1069.43"/>
    </edge>
    <edge id=":2_3" function="internal">
        <lane id=":2_3_0" index="0" disallow="tram rail_urban rail rail_electric rail_fast ship" speed="11.94" length="16.92" shape="367.66,1062.61 362.47,1065.14 358.07,1066.62 354.46,1067.07 351.66,1066.47"/>
    </edge>
    <edge id=":2_4" function="internal">
        <lane id=":2_4_0" index="0" disallow="tram rail_urban rail rail_electric rail_fast ship" speed="3.65" length="4.67" shape="367.66,1062.61 366.22,1062.48 365.49,1061.97 365.46,1061.08 366.13,1059.80"/>
    </edge>
    <edge id=":2_5" function="internal">
        <lane id=":2_5_0" index="0" disallow="tram rail_urban rail rail_electric rail_fast ship" speed="10.26" length="12.26" shape="354.35,1060.69 357.15,1061.58 360.05,1061.73 363.04,1061.14 366.13,1059.80"/>
    </edge>
    <edge id=":2_6" function="internal">
        <lane id=":2_6_0" index="0" disallow="tram rail_urban rail rail_electric rail_fast ship" speed="27.78" length="15.56" shape="354.35,1060.69 358.47,1062.84 361.08,1064.70 363.59,1066.74 367.42,1069.43"/>
        <lane id=":2_6_1" index="1" disallow="tram rail_urban rail rail_electric rail_fast ship" speed="27.78" length="15.56" shape="353.00,1063.59 357.01,1065.69 359.54,1067.51 361.97,1069.50 365.69,1072.13"/>
    </edge>
    <edge id=":2_8" function="internal">
        <lane id=":2_8_0" index="0" disallow="tram rail_urban rail rail_electric rail_fast ship" speed="3.64" length="2.32" shape="353.00,1063.59 353.74,1064.81 353.77,1065.70"/>
    </edge>
    <edge id=":2_9" function="internal">
        <lane id=":2_9_0" index="0" disallow="tram rail_urban rail rail_electric rail_fast ship" speed="3.64" length="2.32" shape="353.77,1065.70 353.07,1066.25 351.66,1066.47"/>
    </edge>
    <edge id=":20_0" function="internal">
        <lane id=":20_0_0" index="0" disallow="tram rail_urban rail rail_electric rail_fast ship" speed="6.52" length="9.03" shape="908.25,1575.92 909.74,1577.91 911.49,1578.95 913.53,1579.04 915.85,1578.19"/>
    </edge>
    <edge id=":20_1" function="internal">
        <lane id=":20_1_0" index="0" disallow="tram rail_urban rail rail_electric rail_fast ship" speed="27.78" length="11.19" shape="908.25,1575.92 913.58,1585.77"/>
        <lane id=":20_1_1" index="1" disallow="tram rail_urban rail rail_electric rail_fast ship" speed="27.78" length="11.19" shape="905.45,1577.45 910.76,1587.29"/>
    </edge>
    <edge id=":20_3" function="internal">
        <lane id=":20_3_0" index="0" disallow="tram rail_urban rail rail_electric rail_fast ship" speed="13.89" length="14.37" shape="903.20,1585.02 915.85,1578.19"/>
    </edge>
    <edge id=":20_4" function="internal">