<?xml version="1.0" encoding="UTF-8"?>

<routes xmlns:xsi="http://www.w3.org/2001/XMLSchema-instance" xsi:noNamespaceSchemaLocation="http://sumo.dlr.de/xsd/routes_file.xsd">
    <trip id="vehicle_0" depart="0.00" from="gneE11" to="gneE1" via="gneE12 gneE13 gneE14 gneE6 gneE3 gneE2 gneE1 gneE4 gneE3 gneE2 gneE1 gneE4 gneE3 gneE2"/>
    <trip id="vehicle_1" depart="0.00" from="gneE15" to="gneE16" via="gneE13 gneE18 gneE17 gneE16 gneE13 gneE18 gneE17"/>
    <trip id="vehicle_10" depart="0.00" from="gneE9" to="gneE1" via="gneE3 gneE4"/>
    <trip id="vehicle_2" depart="0.00" from="gneE14" to="gneE4" via="gneE7 gneE8 gneE9 gneE3 gneE4 gneE1 gneE2 gneE3"/>
    <trip id="vehicle_3" depart="0.00" from="gneE17" to="gneE8" via="gneE19 gneE20 gneE22"/>
    <trip id="vehicle_4" depart="0.00" from="gneE12" to="gneE2" via="gneE13 gneE16 gneE17 gneE19 gneE20 gneE22 gneE8 gneE9 gneE3 gneE4 gneE1"/>
    <trip id="vehicle_5" depart="0.00" from="gneE6" to="gneE3" via="gneE4 gneE1 gneE2"/>
    <trip id="vehicle_6" depart="0.00" from="gneE3" to="gneE2" via="gneE4 gneE1"/>
    <trip id="vehicle_7" depart="0.00" from="gneE4" to="gneE3"/>
    <trip id="vehicle_8" depart="0.00" from="gneE16" to="gneE8" via="gneE21 gneE17 gneE18 gneE13 gneE14 gneE7"/>
    <trip id="vehicle_9" depart="0.00" from="gneE8" to="gneE9"/>
</routes>
