<?xml version="1.0" encoding="UTF-8"?>

<routes xmlns:xsi="http://www.w3.org/2001/XMLSchema-instance" xsi:noNamespaceSchemaLocation="http://sumo.dlr.de/xsd/routes_file.xsd">
    <trip id="vehicle_0" depart="0.00" departPos="0.00" departSpeed="20.00" from="gneE11" to="gneE13" via="gneE48"/>
    <trip id="vehicle_1" depart="0.00" from="gneE33" to="gneE13" via="gneE45 gneE2 gneE1 gneE0 gneE28 gneE14"/>
</routes>
