<?xml version="1.0" encoding="UTF-8"?>

<!-- generated on 2021-11-20 13:22:36 by Eclipse SUMO netedit Version 1.10.0
<configuration xmlns:xsi="http://www.w3.org/2001/XMLSchema-instance" xsi:noNamespaceSchemaLocation="http://sumo.dlr.de/xsd/netconvertConfiguration.xsd">

    <input>
        <sumo-net-file value="network.net.xml"/>
    </input>

    <output>
        <output-file value="/Users/yunhaowang/Desktop/sumo-gym/assets/data/network.net.xml"/>
    </output>

    <processing>
        <geometry.min-radius.fix.railways value="false"/>
        <geometry.max-grade.fix value="false"/>
        <offset.disable-normalization value="true"/>
        <lefthand value="false"/>
    </processing>

    <junctions>
        <no-turnarounds value="true"/>
        <junctions.corner-detail value="5"/>
        <junctions.limit-turn-speed value="5.5"/>
        <rectangular-lane-cut value="false"/>
    </junctions>

    <pedestrian>
        <walkingareas value="false"/>
    </pedestrian>

    <report>
        <aggregate-warnings value="5"/>
    </report>

</configuration>
-->

<net version="1.9" junctionCornerDetail="5" limitTurnSpeed="5.50" xmlns:xsi="http://www.w3.org/2001/XMLSchema-instance" xsi:noNamespaceSchemaLocation="http://sumo.dlr.de/xsd/net_file.xsd">

    <location netOffset="0.00,0.00" convBoundary="-31.12,19.83,104.57,95.19" origBoundary="-10000000000.00,-10000000000.00,10000000000.00,10000000000.00" projParameter="!"/>

    <edge id=":gneJ0_0" function="internal">
        <lane id=":gneJ0_0_0" index="0" speed="13.89" length="14.89" shape="49.70,84.78 46.08,85.71 42.47,86.55 38.83,87.30 35.16,87.95"/>
    </edge>
    <edge id=":gneJ0_1" function="internal">
        <lane id=":gneJ0_1_0" index="0" speed="7.91" length="6.18" shape="49.70,84.78 45.75,85.27 43.64,84.64"/>
    </edge>
    <edge id=":gneJ0_6" function="internal">
        <lane id=":gneJ0_6_0" index="0" speed="7.91" length="8.22" shape="43.64,84.64 42.66,84.35 40.42,82.03 39.03,78.31"/>
    </edge>
    <edge id=":gneJ0_2" function="internal">
        <lane id=":gneJ0_2_0" index="0" speed="6.39" length="9.03" shape="42.17,77.63 43.03,79.96 44.44,81.42 46.38,82.00 48.85,81.69"/>
    </edge>
    <edge id=":gneJ0_3" function="internal">
        <lane id=":gneJ0_3_0" index="0" speed="7.92" length="14.39" shape="42.17,77.63 42.45,81.59 41.37,84.63 38.94,86.75 35.16,87.95"/>
    </edge>
    <edge id=":gneJ0_4" function="internal">
        <lane id=":gneJ0_4_0" index="0" speed="6.40" length="9.04" shape="34.63,84.80 37.01,84.04 38.53,82.71 39.21,80.80 39.03,78.31"/>
    </edge>
    <edge id=":gneJ0_5" function="internal">
        <lane id=":gneJ0_5_0" index="0" speed="13.89" length="14.56" shape="34.63,84.80 38.26,84.15 41.78,83.43 45.29,82.61 48.85,81.69"/>
    </edge>
    <edge id=":gneJ1_0" function="internal">
        <lane id=":gneJ1_0_0" index="0" speed="13.89" length="14.49" shape="82.69,75.61 68.75,79.59"/>
    </edge>
    <edge id=":gneJ1_1" function="internal">
        <lane id=":gneJ1_1_0" index="0" speed="7.83" length="5.94" shape="82.69,75.61 78.72,76.20 76.87,75.68"/>
    </edge>
    <edge id=":gneJ1_6" function="internal">
        <lane id=":gneJ1_6_0" index="0" speed="7.83" length="8.55" shape="76.87,75.68 75.62,75.33 73.39,73.00 72.03,69.21"/>
    </edge>
    <edge id=":gneJ1_2" function="internal">
        <lane id=":gneJ1_2_0" index="0" speed="6.34" length="9.04" shape="75.16,68.57 76.00,70.93 77.40,72.39 79.33,72.94 81.82,72.59"/>
    </edge>
    <edge id=":gneJ1_3" function="internal">
        <lane id=":gneJ1_3_0" index="0" speed="8.23" length="14.34" shape="75.16,68.57 75.43,72.56 74.46,75.72 72.23,78.07 68.75,79.59"/>
    </edge>
    <edge id=":gneJ1_4" function="internal">
        <lane id=":gneJ1_4_0" index="0" speed="6.83" length="9.46" shape="67.94,76.58 70.18,75.55 71.61,73.98 72.22,71.87 72.03,69.21"/>
    </edge>
    <edge id=":gneJ1_5" function="internal">
        <lane id=":gneJ1_5_0" index="0" speed="13.89" length="14.44" shape="67.94,76.58 81.82,72.59"/>
    </edge>
    <edge id=":gneJ10_0" function="internal">
        <lane id=":gneJ10_0_0" index="0" speed="13.89" length="14.72" shape="-27.92,69.99 -29.74,55.39"/>
    </edge>
    <edge id=":gneJ10_1" function="internal">
        <lane id=":gneJ10_1_0" index="0" speed="7.89" length="6.30" shape="-27.92,69.99 -27.98,65.99 -27.08,63.88"/>
    </edge>
    <edge id=":gneJ10_6" function="internal">
        <lane id=":gneJ10_6_0" index="0" speed="7.89" length="8.16" shape="-27.08,63.88 -26.72,63.02 -24.14,61.07 -20.25,60.15"/>
    </edge>
    <edge id=":gneJ10_2" function="internal">
        <lane id=":gneJ10_2_0" index="0" speed="6.37" length="9.04" shape="-19.96,63.34 -22.40,63.92 -24.01,65.13 -24.80,66.99 -24.76,69.49"/>
    </edge>
    <edge id=":gneJ10_3" function="internal">
        <lane id=":gneJ10_3_0" index="0" speed="8.05" length="14.37" shape="-19.96,63.34 -23.95,63.15 -26.90,61.76 -28.83,59.17 -29.74,55.39"/>
    </edge>
    <edge id=":gneJ10_4" function="internal">
        <lane id=":gneJ10_4_0" index="0" speed="6.57" length="9.23" shape="-26.57,55.10 -25.99,57.51 -24.74,59.15 -22.83,60.03 -20.25,60.15"/>
    </edge>
    <edge id=":gneJ10_5" function="internal">
        <lane id=":gneJ10_5_0" index="0" speed="13.89" length="14.51" shape="-26.57,55.10 -24.76,69.49"/>
    </edge>
    <edge id=":gneJ11_0" function="internal">
        <lane id=":gneJ11_0_0" index="0" speed="6.66" length="9.28" shape="6.43,66.55 5.77,64.17 4.47,62.55 2.52,61.68 -0.07,61.56"/>
    </edge>
    <edge id=":gneJ11_1" function="internal">
        <lane id=":gneJ11_1_0" index="0" speed="13.89" length="14.41" shape="6.43,66.55 4.48,52.27"/>
    </edge>
    <edge id=":gneJ11_2" function="internal">
        <lane id=":gneJ11_2_0" index="0" speed="8.06" length="5.75" shape="6.43,66.55 6.52,62.71 7.29,60.96"/>
    </edge>
    <edge id=":gneJ11_12" function="internal">
        <lane id=":gneJ11_12_0" index="0" speed="8.06" length="8.39" shape="7.29,60.96 7.81,59.78 10.32,57.77 14.05,56.67"/>
    </edge>
    <edge id=":gneJ11_3" function="internal">
        <lane id=":gneJ11_3_0" index="0" speed="6.61" length="9.11" shape="14.51,59.77 12.11,60.50 10.50,61.81 9.66,63.70 9.61,66.16"/>
    </edge>
    <edge id=":gneJ11_4" function="internal">
        <lane id=":gneJ11_4_0" index="0" speed="13.89" length="14.68" shape="14.51,59.77 -0.07,61.56"/>
    </edge>
    <edge id=":gneJ11_5" function="internal">
        <lane id=":gneJ11_5_0" index="0" speed="8.00" length="14.32" shape="14.51,59.77 10.61,59.82 7.64,58.58 5.60,56.07 4.48,52.27"/>
    </edge>
    <edge id=":gneJ11_6" function="internal">
        <lane id=":gneJ11_6_0" index="0" speed="6.55" length="9.17" shape="7.66,51.79 8.38,54.23 9.68,55.86 11.57,56.67 14.05,56.67"/>
    </edge>
    <edge id=":gneJ11_7" function="internal">
        <lane id=":gneJ11_7_0" index="0" speed="13.89" length="14.51" shape="7.66,51.79 9.61,66.16"/>
    </edge>
    <edge id=":gneJ11_8" function="internal">
        <lane id=":gneJ11_8_0" index="0" speed="7.90" length="6.08" shape="7.66,51.79 7.68,55.76 6.84,57.69"/>
    </edge>
    <edge id=":gneJ11_13" function="internal">
        <lane id=":gneJ11_13_0" index="0" speed="7.90" length="8.33" shape="6.84,57.69 6.39,58.71 3.81,60.65 -0.07,61.56"/>
    </edge>
    <edge id=":gneJ11_9" function="internal">
        <lane id=":gneJ11_9_0" index="0" speed="6.41" length="9.05" shape="-0.35,58.46 2.08,57.86 3.69,56.63 4.49,54.76 4.48,52.27"/>
    </edge>
    <edge id=":gneJ11_10" function="internal">
        <lane id=":gneJ11_10_0" index="0" speed="13.89" length="14.50" shape="-0.35,58.46 14.05,56.67"/>
    </edge>
    <edge id=":gneJ11_11" function="internal">
        <lane id=":gneJ11_11_0" index="0" speed="8.09" length="14.29" shape="-0.35,58.46 3.62,58.60 6.59,59.94 8.59,62.46 9.61,66.16"/>
    </edge>
    <edge id=":gneJ12_0" function="internal">
        <lane id=":gneJ12_0_0" index="0" speed="6.76" length="9.43" shape="3.84,47.88 3.11,45.53 1.74,43.93 -0.28,43.08 -2.95,42.99"/>
    </edge>
    <edge id=":gneJ12_1" function="internal">
        <lane id=":gneJ12_1_0" index="0" speed="13.89" length="14.53" shape="3.84,47.88 1.40,33.56"/>
    </edge>
    <edge id=":gneJ12_2" function="internal">
        <lane id=":gneJ12_2_0" index="0" speed="13.89" length="14.66" shape="4.52,32.96 7.01,47.41"/>
    </edge>
    <edge id=":gneJ12_3" function="internal">
        <lane id=":gneJ12_3_0" index="0" speed="7.85" length="6.15" shape="4.52,32.96 4.70,37.02 3.94,38.97"/>
    </edge>
    <edge id=":gneJ12_6" function="internal">
        <lane id=":gneJ12_6_0" index="0" speed="7.85" length="8.42" shape="3.94,38.97 3.52,40.05 0.97,42.04 -2.95,42.99"/>
    </edge>
    <edge id=":gneJ12_4" function="internal">
        <lane id=":gneJ12_4_0" index="0" speed="6.28" length="9.03" shape="-3.25,39.71 -0.81,39.15 0.78,37.94 1.52,36.08 1.40,33.56"/>
    </edge>
    <edge id=":gneJ12_5" function="internal">
        <lane id=":gneJ12_5_0" index="0" speed="8.26" length="14.43" shape="-3.25,39.71 0.77,39.92 3.82,41.27 5.90,43.77 7.01,47.41"/>
    </edge>
    <edge id=":gneJ13_0" function="internal">
        <lane id=":gneJ13_0_0" index="0" speed="13.89" length="14.36" shape="-30.16,50.79 -31.50,36.49"/>
    </edge>
    <edge id=":gneJ13_1" function="internal">
        <lane id=":gneJ13_1_0" index="0" speed="7.98" length="5.89" shape="-30.16,50.79 -29.96,46.89 -29.09,45.10"/>
    </edge>
    <edge id=":gneJ13_6" function="internal">
        <lane id=":gneJ13_6_0" index="0" speed="7.98" length="8.33" shape="-29.09,45.10 -28.56,44.01 -25.95,42.13 -22.15,41.26"/>
    </edge>
    <edge id=":gneJ13_2" function="internal">
        <lane id=":gneJ13_2_0" index="0" speed="6.49" length="9.03" shape="-21.89,44.45 -24.31,45.00 -25.96,46.20 -26.85,48.03 -26.98,50.50"/>
    </edge>
    <edge id=":gneJ13_3" function="internal">
        <lane id=":gneJ13_3_0" index="0" speed="8.04" length="14.20" shape="-21.89,44.45 -25.79,44.23 -28.69,42.82 -30.59,40.24 -31.50,36.49"/>
    </edge>
    <edge id=":gneJ13_4" function="internal">
        <lane id=":gneJ13_4_0" index="0" speed="6.55" length="9.08" shape="-28.31,36.18 -27.73,38.58 -26.50,40.22 -24.65,41.12 -22.15,41.26"/>
    </edge>
    <edge id=":gneJ13_5" function="internal">
        <lane id=":gneJ13_5_0" index="0" speed="13.89" length="14.39" shape="-28.31,36.18 -26.98,50.50"/>
    </edge>
    <edge id=":gneJ14_0" function="internal">
        <lane id=":gneJ14_0_0" index="0" speed="6.07" length="8.29" shape="-32.38,27.28 -32.27,24.98 -31.43,23.33 -29.88,22.35 -27.60,22.02"/>
    </edge>
    <edge id=":gneJ14_1" function="internal">
        <lane id=":gneJ14_1_0" index="0" speed="3.90" length="2.76" shape="-27.60,25.22 -28.36,25.33 -28.88,25.66 -29.15,26.21 -29.19,26.97"/>
    </edge>
    <edge id=":gneJ15_0" function="internal">
        <lane id=":gneJ15_0_0" index="0" speed="7.27" length="9.85" shape="0.99,31.40 0.13,28.70 -1.24,26.77 -3.12,25.61 -5.52,25.22"/>
    </edge>
    <edge id=":gneJ15_1" function="internal">
        <lane id=":gneJ15_1_0" index="0" speed="7.77" length="14.68" shape="0.99,31.40 0.80,27.31 2.01,24.31 4.63,22.40 8.66,21.59"/>
    </edge>
    <edge id=":gneJ15_2" function="internal">
        <lane id=":gneJ15_2_0" index="0" speed="6.26" length="9.05" shape="8.84,24.73 6.36,25.25 4.75,26.43 4.00,28.29 4.11,30.81"/>
    </edge>
    <edge id=":gneJ15_3" function="internal">
        <lane id=":gneJ15_3_0" index="0" speed="13.89" length="14.37" shape="8.84,24.73 -5.52,25.22"/>
    </edge>
    <edge id=":gneJ15_4" function="internal">
        <lane id=":gneJ15_4_0" index="0" speed="13.89" length="14.19" shape="-5.52,22.07 8.66,21.59"/>
    </edge>
    <edge id=":gneJ15_5" function="internal">
        <lane id=":gneJ15_5_0" index="0" speed="8.61" length="5.32" shape="-5.52,22.07 -1.93,22.59 -0.47,23.44"/>
    </edge>
    <edge id=":gneJ15_6" function="internal">
        <lane id=":gneJ15_6_0" index="0" speed="8.61" length="8.99" shape="-0.47,23.44 0.87,24.22 2.88,26.96 4.11,30.81"/>
    </edge>
    <edge id=":gneJ2_0" function="internal">
        <lane id=":gneJ2_0_0" index="0" speed="6.08" length="7.99" shape="105.00,63.73 105.41,65.89 105.02,67.64 103.82,68.98 101.83,69.90"/>
    </edge>
    <edge id=":gneJ2_1" function="internal">
        <lane id=":gneJ2_1_0" index="0" speed="3.90" length="2.66" shape="100.91,66.83 101.58,66.52 101.98,66.08 102.11,65.49 101.97,64.77"/>
    </edge>
    <edge id=":gneJ3_0" function="internal">
        <lane id=":gneJ3_0_0" index="0" speed="6.69" length="8.68" shape="95.87,46.89 94.82,44.83 93.33,43.52 91.40,42.95 89.03,43.11"/>
    </edge>
    <edge id=":gneJ3_1" function="internal">
        <lane id=":gneJ3_1_0" index="0" speed="13.89" length="13.53" shape="95.87,46.89 94.80,43.54 93.97,40.40 93.31,37.22 92.77,33.74"/>
    </edge>
    <edge id=":gneJ3_2" function="internal">
        <lane id=":gneJ3_2_0" index="0" speed="13.89" length="12.91" shape="95.92,33.32 96.45,36.70 97.06,39.67 97.84,42.60 98.89,45.86"/>
    </edge>
    <edge id=":gneJ3_3" function="internal">
        <lane id=":gneJ3_3_0" index="0" speed="8.00" length="5.47" shape="95.92,33.32 95.92,36.98 95.24,38.65"/>
    </edge>
    <edge id=":gneJ3_6" function="internal">
        <lane id=":gneJ3_6_0" index="0" speed="8.00" length="8.00" shape="95.24,38.65 94.77,39.83 92.47,41.88 89.03,43.11"/>
    </edge>
    <edge id=":gneJ3_4" function="internal">
        <lane id=":gneJ3_4_0" index="0" speed="6.52" length="8.57" shape="88.37,39.98 90.56,39.19 92.02,37.88 92.76,36.07 92.77,33.74"/>
    </edge>
    <edge id=":gneJ3_5" function="internal">
        <lane id=":gneJ3_5_0" index="0" speed="8.16" length="13.40" shape="88.37,39.98 92.01,39.72 94.98,40.62 97.27,42.66 98.89,45.86"/>
    </edge>
    <edge id=":gneJ4_0" function="internal">
        <lane id=":gneJ4_0_0" index="0" speed="6.37" length="9.04" shape="68.79,53.28 67.95,50.93 66.56,49.46 64.63,48.89 62.15,49.20"/>
    </edge>
    <edge id=":gneJ4_1" function="internal">
        <lane id=":gneJ4_1_0" index="0" speed="8.06" length="14.37" shape="68.79,53.28 68.54,49.31 69.59,46.21 71.94,43.99 75.58,42.65"/>
    </edge>
    <edge id=":gneJ4_2" function="internal">
        <lane id=":gneJ4_2_0" index="0" speed="6.55" length="9.19" shape="76.25,45.86 73.93,46.69 72.43,48.10 71.76,50.08 71.93,52.65"/>
    </edge>
    <edge id=":gneJ4_3" function="internal">
        <lane id=":gneJ4_3_0" index="0" speed="13.89" length="14.50" shape="76.25,45.86 62.15,49.20"/>
    </edge>
    <edge id=":gneJ4_4" function="internal">
        <lane id=":gneJ4_4_0" index="0" speed="13.89" length="14.69" shape="61.32,46.19 75.58,42.65"/>
    </edge>
    <edge id=":gneJ4_5" function="internal">
        <lane id=":gneJ4_5_0" index="0" speed="7.85" length="6.29" shape="61.32,46.19 65.28,45.65 67.48,46.29"/>
    </edge>
    <edge id=":gneJ4_6" function="internal">
        <lane id=":gneJ4_6_0" index="0" speed="7.85" length="8.14" shape="67.48,46.29 68.36,46.55 70.58,48.88 71.93,52.65"/>
    </edge>
    <edge id=":gneJ5_0" function="internal">
        <lane id=":gneJ5_0_0" index="0" speed="6.64" length="9.03" shape="35.52,62.04 34.67,59.73 33.29,58.21 31.37,57.47 28.91,57.50"/>
    </edge>
    <edge id=":gneJ5_1" function="internal">
        <lane id=":gneJ5_1_0" index="0" speed="13.89" length="15.13" shape="35.52,62.04 34.80,58.34 34.22,54.59 33.76,50.82 33.43,47.07"/>
    </edge>
    <edge id=":gneJ5_2" function="internal">
        <lane id=":gneJ5_2_0" index="0" speed="8.30" length="14.70" shape="35.52,62.04 35.30,58.23 36.44,55.15 38.93,52.81 42.79,51.20"/>
    </edge>
    <edge id=":gneJ5_3" function="internal">
        <lane id=":gneJ5_3_0" index="0" speed="6.87" length="9.75" shape="43.64,54.28 41.02,55.36 39.31,56.90 38.52,58.90 38.65,61.36"/>
    </edge>
    <edge id=":gneJ5_4" function="internal">
        <lane id=":gneJ5_4_0" index="0" speed="13.89" length="15.08" shape="43.64,54.28 40.00,55.23 36.32,56.10 32.62,56.86 28.91,57.50"/>
    </edge>
    <edge id=":gneJ5_5" function="internal">
        <lane id=":gneJ5_5_0" index="0" speed="7.69" length="6.25" shape="43.64,54.28 39.44,54.81 37.53,54.18"/>
    </edge>
    <edge id=":gneJ5_12" function="internal">
        <lane id=":gneJ5_12_0" index="0" speed="7.69" length="8.75" shape="37.53,54.18 36.34,53.78 34.34,51.20 33.43,47.07"/>
    </edge>
    <edge id=":gneJ5_6" function="internal">
        <lane id=":gneJ5_6_0" index="0" speed="6.12" length="9.06" shape="36.63,46.84 37.17,49.34 38.38,50.89 40.25,51.51 42.79,51.20"/>
    </edge>
    <edge id=":gneJ5_7" function="internal">
        <lane id=":gneJ5_7_0" index="0" speed="13.89" length="14.68" shape="36.63,46.84 36.95,50.52 37.38,54.14 37.94,57.73 38.65,61.36"/>
    </edge>
    <edge id=":gneJ5_8" function="internal">
        <lane id=":gneJ5_8_0" index="0" speed="8.40" length="14.74" shape="36.63,46.84 36.40,51.01 35.04,54.18 32.54,56.34 28.91,57.50"/>
    </edge>
    <edge id=":gneJ5_9" function="internal">
        <lane id=":gneJ5_9_0" index="0" speed="6.99" length="9.89" shape="28.41,54.35 30.78,53.57 32.41,52.09 33.29,49.93 33.43,47.07"/>
    </edge>
    <edge id=":gneJ5_10" function="internal">
        <lane id=":gneJ5_10_0" index="0" speed="13.89" length="14.73" shape="28.41,54.35 32.07,53.71 35.65,52.97 39.21,52.14 42.79,51.20"/>
    </edge>
    <edge id=":gneJ5_11" function="internal">
        <lane id=":gneJ5_11_0" index="0" speed="8.11" length="5.65" shape="28.41,54.35 32.21,54.28 33.94,54.95"/>
    </edge>
    <edge id=":gneJ5_13" function="internal">
        <lane id=":gneJ5_13_0" index="0" speed="8.11" length="8.33" shape="33.94,54.95 35.19,55.43 37.33,57.79 38.65,61.36"/>
    </edge>
    <edge id=":gneJ6_0" function="internal">
        <lane id=":gneJ6_0_0" index="0" speed="6.57" length="9.17" shape="32.13,28.99 31.59,26.50 30.42,24.77 28.60,23.81 26.13,23.61"/>
    </edge>
    <edge id=":gneJ6_1" function="internal">
        <lane id=":gneJ6_1_0" index="0" speed="7.92" length="14.36" shape="32.13,28.99 32.40,25.04 33.89,22.18 36.58,20.41 40.48,19.74"/>
    </edge>
    <edge id=":gneJ6_2" function="internal">
        <lane id=":gneJ6_2_0" index="0" speed="6.41" length="9.04" shape="40.57,22.94 38.12,23.36 36.43,24.47 35.49,26.27 35.32,28.76"/>
    </edge>
    <edge id=":gneJ6_3" function="internal">
        <lane id=":gneJ6_3_0" index="0" speed="13.89" length="14.46" shape="40.57,22.94 26.13,23.61"/>
    </edge>
    <edge id=":gneJ6_4" function="internal">
        <lane id=":gneJ6_4_0" index="0" speed="13.89" length="14.57" shape="25.93,20.42 40.48,19.74"/>
    </edge>
    <edge id=":gneJ6_5" function="internal">
        <lane id=":gneJ6_5_0" index="0" speed="8.05" length="6.08" shape="25.93,20.42 29.79,20.73 31.74,21.75"/>
    </edge>
    <edge id=":gneJ6_6" function="internal">
        <lane id=":gneJ6_6_0" index="0" speed="8.05" length="8.22" shape="31.74,21.75 32.65,22.22 34.49,24.90 35.32,28.76"/>
    </edge>
    <edge id=":gneJ7_0" function="internal">
        <lane id=":gneJ7_0_0" index="0" speed="3.91" length="2.39" shape="91.30,22.90 91.13,22.28 90.80,21.84 90.31,21.58 89.67,21.51"/>
    </edge>
    <edge id=":gneJ7_1" function="internal">
        <lane id=":gneJ7_1_0" index="0" speed="6.06" length="7.16" shape="89.58,18.35 91.50,18.54 92.96,19.29 93.95,20.60 94.47,22.48"/>
    </edge>
    <edge id=":gneJ8_0" function="internal">
        <lane id=":gneJ8_0_0" index="0" speed="13.89" length="14.43" shape="18.46,90.78 4.22,93.05"/>
    </edge>
    <edge id=":gneJ8_1" function="internal">
        <lane id=":gneJ8_1_0" index="0" speed="7.96" length="6.08" shape="18.46,90.78 14.50,90.83 12.54,90.02"/>
    </edge>
    <edge id=":gneJ8_6" function="internal">
        <lane id=":gneJ8_6_0" index="0" speed="7.96" length="8.29" shape="12.54,90.02 11.51,89.60 9.50,87.07 8.46,83.26"/>
    </edge>
    <edge id=":gneJ8_2" function="internal">
        <lane id=":gneJ8_2_0" index="0" speed="6.42" length="9.03" shape="11.65,82.86 12.30,85.27 13.56,86.85 15.44,87.62 17.93,87.56"/>
    </edge>
    <edge id=":gneJ8_3" function="internal">
        <lane id=":gneJ8_3_0" index="0" speed="8.13" length="14.26" shape="11.65,82.86 11.59,86.80 10.33,89.82 7.87,91.90 4.22,93.05"/>
    </edge>
    <edge id=":gneJ8_4" function="internal">
        <lane id=":gneJ8_4_0" index="0" speed="6.60" length="9.18" shape="3.69,89.78 6.04,89.07 7.62,87.75 8.43,85.81 8.46,83.26"/>
    </edge>
    <edge id=":gneJ8_5" function="internal">
        <lane id=":gneJ8_5_0" index="0" speed="13.89" length="14.41" shape="3.69,89.78 17.93,87.56"/>
    </edge>
    <edge id=":gneJ9_0" function="internal">
        <lane id=":gneJ9_0_0" index="0" speed="6.11" length="7.78" shape="-18.95,96.45 -21.05,96.45 -22.66,95.76 -23.78,94.39 -24.40,92.32"/>
    </edge>
    <edge id=":gneJ9_1" function="internal">
        <lane id=":gneJ9_1_0" index="0" speed="3.90" length="2.56" shape="-21.24,91.82 -21.04,92.49 -20.67,92.93 -20.13,93.15 -19.43,93.15"/>
    </edge>

    <edge id="gneE0" from="gneJ0" to="gneJ1" priority="-1" shape="42.16,85.17 60.08,80.29 62.80,79.70 75.09,76.21">
        <lane id="gneE0_0" index="0" speed="13.89" length="19.76" shape="48.85,81.69 59.70,78.74 62.41,78.15 67.94,76.58"/>
    </edge>
    <edge id="gneE1" from="gneJ1" to="gneJ2" priority="-1" shape="75.09,76.21 92.36,71.20 95.80,70.02 104.57,67.41">
        <lane id="gneE1_0" index="0" speed="13.89" length="19.95" shape="81.82,72.59 91.88,69.67 95.31,68.50 100.91,66.83"/>
    </edge>
    <edge id="gneE10" from="gneJ0" to="gneJ8" priority="-1" shape="42.16,85.17 32.28,86.81 29.59,87.40 10.95,90.34">
        <lane id="gneE10_0" index="0" speed="13.89" length="16.94" shape="35.16,87.95 32.58,88.38 29.89,88.97 18.46,90.78"/>
    </edge>
    <edge id="gneE11" from="gneJ8" to="gneJ9" priority="-1" shape="10.95,90.34 -1.65,92.38 -3.97,92.58 -19.90,94.97 -22.33,95.19">
        <lane id="gneE11_0" index="0" speed="13.89" length="23.42" shape="4.22,93.05 -1.45,93.97 -3.78,94.17 -18.95,96.45"/>
    </edge>
    <edge id="gneE13" from="gneJ10" to="gneJ11" priority="-1" shape="-27.50,62.41 -9.00,60.75 -5.53,60.59 7.16,59.31">
        <lane id="gneE13_0" index="0" speed="13.89" length="19.98" shape="-20.25,60.15 -9.11,59.15 -5.65,58.99 -0.35,58.46"/>
    </edge>
    <edge id="gneE14" from="gneJ11" to="gneJ5" priority="-1" shape="7.16,59.31 23.02,56.96 25.50,56.42 28.51,55.95 35.60,54.83">
        <lane id="gneE14_0" index="0" speed="13.89" length="14.56" shape="14.05,56.67 22.73,55.39 25.21,54.85 28.26,54.37 28.41,54.35"/>
    </edge>
    <edge id="gneE15" from="gneJ8" to="gneJ11" priority="-1" shape="10.95,90.34 8.70,72.11 8.33,68.88 7.16,59.31">
        <lane id="gneE15_0" index="0" speed="13.89" length="16.83" shape="8.46,83.26 7.11,72.30 6.74,69.07 6.43,66.55"/>
    </edge>
    <edge id="gneE16" from="gneJ11" to="gneJ12" priority="-1" shape="7.16,59.31 6.27,53.44 4.40,40.69">
        <lane id="gneE16_0" index="0" speed="13.89" length="4.43" shape="4.48,52.27 3.84,47.88"/>
    </edge>
    <edge id="gneE17" from="gneJ12" to="gneJ13" priority="-1" shape="4.40,40.69 -8.30,41.88 -10.71,41.93 -29.22,43.45">
        <lane id="gneE17_0" index="0" speed="13.89" length="19.00" shape="-2.95,42.99 -8.21,43.48 -10.63,43.53 -21.89,44.45"/>
    </edge>
    <edge id="gneE18" from="gneJ13" to="gneJ10" priority="-1" shape="-29.22,43.45 -28.07,56.29 -27.50,62.41">
        <lane id="gneE18_0" index="0" speed="13.89" length="4.62" shape="-26.98,50.50 -26.57,55.10"/>
    </edge>
    <edge id="gneE19" from="gneJ13" to="gneJ14" priority="-1" shape="-29.22,43.45 -29.90,36.45 -31.12,23.62">
        <lane id="gneE19_0" index="0" speed="13.89" length="9.25" shape="-31.50,36.49 -32.38,27.28"/>
    </edge>
    <edge id="gneE2" from="gneJ2" to="gneJ3" priority="-1" shape="104.57,67.41 99.38,52.37 98.57,49.84 97.58,46.95 95.26,40.17">
        <lane id="gneE2_0" index="0" speed="13.89" length="18.89" shape="101.97,64.77 97.87,52.89 97.05,50.34 96.07,47.47 95.87,46.89"/>
    </edge>
    <edge id="gneE20" from="gneJ14" to="gneJ15" priority="-1" shape="-31.12,23.62 -20.50,23.62 -18.38,23.77 1.12,23.62">
        <lane id="gneE20_0" index="0" speed="13.89" length="22.08" shape="-27.60,22.02 -20.44,22.02 -18.33,22.17 -5.52,22.07"/>
    </edge>
    <edge id="gneE21" from="gneJ15" to="gneJ12" priority="-1" shape="1.12,23.62 3.52,36.28 4.40,40.69">
        <lane id="gneE21_0" index="0" speed="13.89" length="2.19" shape="4.11,30.81 4.52,32.96"/>
    </edge>
    <edge id="gneE22" from="gneJ15" to="gneJ6" priority="-1" shape="1.12,23.62 20.48,22.52 22.69,22.23 33.19,21.55">
        <lane id="gneE22_0" index="0" speed="13.89" length="17.31" shape="8.66,21.59 20.33,20.93 22.53,20.64 25.93,20.42"/>
    </edge>
    <edge id="gneE23" from="gneJ10" to="gneJ9" priority="-1">
        <lane id="gneE23_0" index="0" speed="13.89" length="22.60" shape="-24.76,69.49 -21.24,91.82"/>
    </edge>
    <edge id="gneE24" from="gneJ9" to="gneJ8" priority="-1">
        <lane id="gneE24_0" index="0" speed="13.89" length="23.36" shape="-19.43,93.15 3.69,89.78"/>
    </edge>
    <edge id="gneE25" from="gneJ11" to="gneJ8" priority="-1">
        <lane id="gneE25_0" index="0" speed="13.89" length="16.83" shape="9.61,66.16 11.65,82.86"/>
    </edge>
    <edge id="gneE26" from="gneJ11" to="gneJ10" priority="-1">
        <lane id="gneE26_0" index="0" speed="13.89" length="19.98" shape="-0.07,61.56 -19.96,63.34"/>
    </edge>
    <edge id="gneE27" from="gneJ8" to="gneJ0" priority="-1">
        <lane id="gneE27_0" index="0" speed="13.89" length="16.93" shape="17.93,87.56 34.63,84.80"/>
    </edge>
    <edge id="gneE28" from="gneJ5" to="gneJ0" priority="-1">
        <lane id="gneE28_0" index="0" speed="13.89" length="16.64" shape="38.65,61.36 42.17,77.63"/>
    </edge>
    <edge id="gneE29" from="gneJ1" to="gneJ0" priority="-1">
        <lane id="gneE29_0" index="0" speed="13.89" length="19.75" shape="68.75,79.59 49.70,84.78"/>
    </edge>
    <edge id="gneE3" from="gneJ3" to="gneJ4" priority="-1" shape="95.26,40.17 90.04,41.27 87.06,41.89 82.79,42.93 68.88,45.69">
        <lane id="gneE3_0" index="0" speed="13.89" length="13.08" shape="89.03,43.11 87.41,43.45 83.14,44.49 76.25,45.86"/>
    </edge>
    <edge id="gneE30" from="gneJ2" to="gneJ1" priority="-1">
        <lane id="gneE30_0" index="0" speed="13.89" length="19.97" shape="101.83,69.90 82.69,75.61"/>
    </edge>
    <edge id="gneE31" from="gneJ3" to="gneJ2" priority="-1">
        <lane id="gneE31_0" index="0" speed="13.89" length="18.88" shape="98.89,45.86 105.00,63.73"/>
    </edge>
    <edge id="gneE32" from="gneJ4" to="gneJ3" priority="-1">
        <lane id="gneE32_0" index="0" speed="13.89" length="13.07" shape="75.58,42.65 88.37,39.98"/>
    </edge>
    <edge id="gneE33" from="gneJ7" to="gneJ6" priority="-1">
        <lane id="gneE33_0" index="0" speed="13.89" length="49.12" shape="89.67,21.51 40.57,22.94"/>
    </edge>
    <edge id="gneE34" from="gneJ15" to="gneJ14" priority="-1">
        <lane id="gneE34_0" index="0" speed="13.89" length="22.08" shape="-5.52,25.22 -27.60,25.22"/>
    </edge>
    <edge id="gneE35" from="gneJ14" to="gneJ13" priority="-1">
        <lane id="gneE35_0" index="0" speed="13.89" length="9.24" shape="-29.19,26.97 -28.31,36.18"/>
    </edge>
    <edge id="gneE36" from="gneJ5" to="gneJ11" priority="-1">
        <lane id="gneE36_0" index="0" speed="13.89" length="14.58" shape="28.91,57.50 14.51,59.77"/>
    </edge>
    <edge id="gneE37" from="gneJ12" to="gneJ11" priority="-1">
        <lane id="gneE37_0" index="0" speed="13.89" length="4.42" shape="7.01,47.41 7.66,51.79"/>
    </edge>
    <edge id="gneE38" from="gneJ13" to="gneJ12" priority="-1">
        <lane id="gneE38_0" index="0" speed="13.89" length="18.96" shape="-22.15,41.26 -3.25,39.71"/>
    </edge>
    <edge id="gneE39" from="gneJ10" to="gneJ13" priority="-1">
        <lane id="gneE39_0" index="0" speed="13.89" length="4.62" shape="-29.74,55.39 -30.16,50.79"/>
    </edge>
    <edge id="gneE4" from="gneJ4" to="gneJ1" priority="-1" shape="68.88,45.69 70.78,55.03 71.42,58.32 75.09,76.21">
        <lane id="gneE4_0" index="0" speed="13.89" length="16.25" shape="71.93,52.65 72.35,54.71 72.99,58.01 75.16,68.57"/>
    </edge>
    <edge id="gneE41" from="gneJ6" to="gneJ15" priority="-1">
        <lane id="gneE41_0" index="0" speed="13.89" length="17.33" shape="26.13,23.61 8.84,24.73"/>
    </edge>
    <edge id="gneE42" from="gneJ6" to="gneJ5" priority="-1">
        <lane id="gneE42_0" index="0" speed="13.89" length="18.13" shape="35.32,28.76 36.63,46.84"/>
    </edge>
    <edge id="gneE43" from="gneJ4" to="gneJ5" priority="-1">
        <lane id="gneE43_0" index="0" speed="13.89" length="19.19" shape="62.15,49.20 43.64,54.28"/>
    </edge>
    <edge id="gneE44" from="gneJ1" to="gneJ4" priority="-1">
        <lane id="gneE44_0" index="0" speed="13.89" length="16.25" shape="72.03,69.21 68.79,53.28"/>
    </edge>
    <edge id="gneE45" from="gneJ3" to="gneJ7" priority="-1">
        <lane id="gneE45_0" index="0" speed="13.89" length="10.94" shape="92.77,33.74 91.30,22.90"/>
    </edge>
    <edge id="gneE46" from="gneJ12" to="gneJ15" priority="-1">
        <lane id="gneE46_0" index="0" speed="13.89" length="2.20" shape="1.40,33.56 0.99,31.40"/>
    </edge>
    <edge id="gneE48" from="gneJ9" to="gneJ10" priority="-1">
        <lane id="gneE48_0" index="0" speed="13.89" length="22.60" shape="-24.40,92.32 -27.92,69.99"/>
    </edge>
    <edge id="gneE5" from="gneJ0" to="gneJ5" priority="-1" shape="42.16,85.17 38.29,67.43 37.59,64.04 35.60,54.83">
        <lane id="gneE5_0" index="0" speed="13.89" length="16.65" shape="39.03,78.31 36.73,67.77 36.03,64.37 35.52,62.04"/>
    </edge>
    <edge id="gneE6" from="gneJ5" to="gneJ4" priority="-1" shape="35.60,54.83 53.51,49.91 56.60,49.21 68.88,45.69">
        <lane id="gneE6_0" index="0" speed="13.89" length="19.20" shape="42.79,51.20 53.12,48.36 56.20,47.66 61.32,46.19"/>
    </edge>