<?xml version="1.0" encoding="UTF-8"?>


<net version="1.9" xmlns:xsi="http://www.w3.org/2001/XMLSchema-instance" xsi:noNamespaceSchemaLocation="http://sumo.dlr.de/xsd/net_file.xsd">

    <location netOffset="0.00,0.00" convBoundary="-35.18,-29.92,111.86,122.19" origBoundary="-10000000000.00,-10000000000.00,10000000000.00,10000000000.00" projParameter="!"/>

    <edge id=":v1_0" function="internal">
        <lane id=":v1_0_0" index="0" speed="13.89" length="6.24" shape="-15.53,78.90 -17.18,78.90 -18.57,78.43 -19.69,77.49 -20.55,76.07"/>
    </edge>
    <edge id=":v1_1" function="internal">
        <lane id=":v1_1_0" index="0" speed="13.89" length="2.08" shape="-17.62,74.79 -17.33,75.26 -16.96,75.57 -16.50,75.73 -15.95,75.73"/>
    </edge>
    <edge id=":v10_0" function="internal">
        <lane id=":v10_0_0" index="0" speed="13.89" length="10.34" shape="20.80,80.71 19.75,77.97 18.16,76.12 16.05,75.16 13.40,75.10"/>
    </edge>
    <edge id=":v10_1" function="internal">
        <lane id=":v10_1_0" index="0" speed="13.89" length="15.41" shape="20.80,80.71 17.68,65.61"/>
    </edge>
    <edge id=":v10_2" function="internal">
        <lane id=":v10_2_0" index="0" speed="13.89" length="6.47" shape="20.80,80.71 20.37,76.45 21.13,74.39"/>
    </edge>
    <edge id=":v10_12" function="internal">
        <lane id=":v10_12_0" index="0" speed="13.89" length="8.63" shape="21.13,74.39 21.50,73.38 24.17,71.49 28.39,70.78"/>
    </edge>
    <edge id=":v10_3" function="internal">
        <lane id=":v10_3_0" index="0" speed="13.89" length="9.06" shape="28.46,73.98 25.93,74.41 24.32,75.54 23.65,77.38 23.91,79.94"/>
    </edge>
    <edge id=":v10_4" function="internal">
        <lane id=":v10_4_0" index="0" speed="13.89" length="15.11" shape="28.46,73.98 24.70,74.11 20.92,74.34 17.14,74.66 13.40,75.10"/>
    </edge>
    <edge id=":v10_5" function="internal">
        <lane id=":v10_5_0" index="0" speed="13.89" length="15.13" shape="28.46,73.98 24.27,73.54 21.07,71.99 18.88,69.35 17.68,65.61"/>
    </edge>
    <edge id=":v10_6" function="internal">
        <lane id=":v10_6_0" index="0" speed="13.89" length="10.47" shape="20.84,65.10 21.67,67.64 23.20,69.44 25.44,70.48 28.39,70.78"/>
    </edge>
    <edge id=":v10_7" function="internal">
        <lane id=":v10_7_0" index="0" speed="13.89" length="15.15" shape="20.84,65.10 23.91,79.94"/>
    </edge>
    <edge id=":v10_8" function="internal">
        <lane id=":v10_8_0" index="0" speed="13.89" length="5.50" shape="20.84,65.10 20.91,69.04 20.32,70.48"/>
    </edge>
    <edge id=":v10_13" function="internal">
        <lane id=":v10_13_0" index="0" speed="13.89" length="8.81" shape="20.32,70.48 19.70,72.02 17.19,74.04 13.40,75.10"/>
    </edge>
    <edge id=":v10_9" function="internal">
        <lane id=":v10_9_0" index="0" speed="13.89" length="9.03" shape="12.99,71.93 15.38,71.25 16.96,69.98 17.73,68.10 17.68,65.61"/>
    </edge>
    <edge id=":v10_10" function="internal">
        <lane id=":v10_10_0" index="0" speed="13.89" length="15.45" shape="12.99,71.93 16.78,71.49 20.67,71.15 24.57,70.92 28.39,70.78"/>
    </edge>
    <edge id=":v10_11" function="internal">
        <lane id=":v10_11_0" index="0" speed="13.89" length="15.09" shape="12.99,71.93 16.91,72.00 20.04,73.36 22.37,76.01 23.91,79.94"/>
    </edge>
    <edge id=":v11_0" function="internal">
        <lane id=":v11_0_0" index="0" speed="13.89" length="8.58" shape="14.48,45.90 14.44,43.50 15.20,41.77 16.77,40.71 19.14,40.33"/>
    </edge>
    <edge id=":v11_1" function="internal">
        <lane id=":v11_1_0" index="0" speed="13.89" length="2.86" shape="19.20,43.53 18.40,43.66 17.88,44.01 17.63,44.59 17.64,45.39"/>
    </edge>
    <edge id=":v12_0" function="internal">
        <lane id=":v12_0_0" index="0" speed="13.89" length="18.06" shape="67.61,47.47 65.83,45.43 62.44,44.01 57.44,43.21 50.83,43.02"/>
    </edge>
    <edge id=":v12_1" function="internal">
        <lane id=":v12_1_0" index="0" speed="13.89" length="20.29" shape="67.61,47.47 64.98,43.89 60.74,40.32 56.04,37.16 52.04,34.81"/>
    </edge>
    <edge id=":v12_2" function="internal">
        <lane id=":v12_2_0" index="0" speed="13.89" length="3.84" shape="67.61,47.47 66.71,44.22 66.72,43.75"/>
    </edge>
    <edge id=":v12_12" function="internal">
        <lane id=":v12_12_0" index="0" speed="13.89" length="9.50" shape="66.72,43.75 66.76,41.06 67.76,37.98 69.70,34.98"/>
    </edge>
    <edge id=":v12_3" function="internal">
        <lane id=":v12_3_0" index="0" speed="13.89" length="9.87" shape="72.18,37.01 70.72,39.24 69.96,41.53 69.91,43.86 70.56,46.23"/>
    </edge>
    <edge id=":v12_4" function="internal">
        <lane id=":v12_4_0" index="0" speed="13.89" length="22.73" shape="72.18,37.01 69.08,39.54 64.49,41.38 58.41,42.54 50.83,43.02"/>
    </edge>
    <edge id=":v12_5" function="internal">
        <lane id=":v12_5_0" index="0" speed="13.89" length="21.77" shape="72.18,37.01 69.02,39.20 64.60,39.56 58.94,38.10 52.04,34.81"/>
    </edge>
    <edge id=":v12_6" function="internal">
        <lane id=":v12_6_0" index="0" speed="13.89" length="17.37" shape="53.60,32.01 59.37,34.86 63.99,36.30 67.43,36.34 69.70,34.98"/>
    </edge>
    <edge id=":v12_7" function="internal">
        <lane id=":v12_7_0" index="0" speed="13.89" length="22.34" shape="53.60,32.01 57.82,34.61 63.00,38.31 67.71,42.41 70.56,46.23"/>
    </edge>
    <edge id=":v12_8" function="internal">
        <lane id=":v12_8_0" index="0" speed="13.89" length="4.60" shape="53.60,32.01 56.37,35.01 56.41,35.53"/>
    </edge>
    <edge id=":v12_13" function="internal">
        <lane id=":v12_13_0" index="0" speed="13.89" length="10.83" shape="56.41,35.53 56.64,38.63 54.70,41.69 50.83,43.02"/>
    </edge>
    <edge id=":v12_9" function="internal">
        <lane id=":v12_9_0" index="0" speed="13.89" length="11.19" shape="50.78,39.82 54.59,39.44 56.07,38.48 55.22,36.94 52.04,34.81"/>
    </edge>
    <edge id=":v12_10" function="internal">
        <lane id=":v12_10_0" index="0" speed="13.89" length="19.98" shape="50.78,39.82 57.65,39.42 63.09,38.49 67.11,37.01 69.70,34.98"/>
    </edge>
    <edge id=":v12_11" function="internal">
        <lane id=":v12_11_0" index="0" speed="13.89" length="21.81" shape="50.78,39.82 58.39,40.12 64.22,41.28 68.28,43.32 70.56,46.23"/>
    </edge>
    <edge id=":v13_0" function="internal">
        <lane id=":v13_0_0" index="0" speed="13.89" length="10.18" shape="78.57,75.85 77.51,73.63 75.81,72.17 73.45,71.48 70.43,71.56"/>
    </edge>
    <edge id=":v13_1" function="internal">
        <lane id=":v13_1_0" index="0" speed="13.89" length="14.75" shape="78.57,75.85 77.51,72.30 76.34,68.82 75.05,65.39 73.66,61.95"/>
    </edge>
    <edge id=":v13_2" function="internal">
        <lane id=":v13_2_0" index="0" speed="13.89" length="5.53" shape="78.57,75.85 78.10,72.17 78.55,70.41"/>
    </edge>
    <edge id=":v13_12" function="internal">
        <lane id=":v13_12_0" index="0" speed="13.89" length="8.51" shape="78.55,70.41 78.90,69.07 80.97,66.55 84.31,64.60"/>
    </edge>
    <edge id=":v13_3" function="internal">
        <lane id=":v13_3_0" index="0" speed="13.89" length="9.34" shape="85.54,67.55 83.29,68.85 81.90,70.53 81.35,72.57 81.65,75.00"/>
    </edge>
    <edge id=":v13_4" function="internal">
        <lane id=":v13_4_0" index="0" speed="13.89" length="15.67" shape="85.54,67.55 81.93,68.89 78.11,70.02 74.23,70.92 70.43,71.56"/>
    </edge>
    <edge id=":v13_5" function="internal">
        <lane id=":v13_5_0" index="0" speed="13.89" length="14.97" shape="85.54,67.55 81.75,68.47 78.51,67.85 75.81,65.67 73.66,61.95"/>
    </edge>
    <edge id=":v13_6" function="internal">
        <lane id=":v13_6_0" index="0" speed="13.89" length="9.81" shape="76.61,60.71 78.04,63.22 79.80,64.71 81.89,65.16 84.31,64.60"/>
    </edge>
    <edge id=":v13_7" function="internal">
        <lane id=":v13_7_0" index="0" speed="13.89" length="15.15" shape="76.61,60.71 78.03,64.21 79.35,67.78 80.57,71.38 81.65,75.00"/>
    </edge>
    <edge id=":v13_8" function="internal">
        <lane id=":v13_8_0" index="0" speed="13.89" length="6.32" shape="76.61,60.71 77.71,64.93 77.31,66.85"/>
    </edge>
    <edge id=":v13_13" function="internal">
        <lane id=":v13_13_0" index="0" speed="13.89" length="8.95" shape="77.31,66.85 77.04,68.14 74.61,70.35 70.43,71.56"/>
    </edge>
    <edge id=":v13_9" function="internal">
        <lane id=":v13_9_0" index="0" speed="13.89" length="9.07" shape="69.99,68.39 72.47,67.68 73.91,66.36 74.31,64.45 73.66,61.95"/>
    </edge>
    <edge id=":v13_10" function="internal">
        <lane id=":v13_10_0" index="0" speed="13.89" length="14.85" shape="69.99,68.39 73.67,67.78 77.27,66.96 80.82,65.91 84.31,64.60"/>
    </edge>
    <edge id=":v13_11" function="internal">
        <lane id=":v13_11_0" index="0" speed="13.89" length="14.86" shape="69.99,68.39 74.26,68.31 77.63,69.38 80.10,71.61 81.65,75.00"/>
    </edge>
    <edge id=":v14_0" function="internal">
        <lane id=":v14_0_0" index="0" speed="13.89" length="0.56" shape="58.03,73.30 57.86,73.32 57.75,73.33 57.63,73.34 57.47,73.34"/>
    </edge>
    <edge id=":v14_1" function="internal">
        <lane id=":v14_1_0" index="0" speed="13.89" length="0.19" shape="57.40,70.14 57.45,70.14 57.49,70.14 57.53,70.14 57.58,70.13"/>
    </edge>
    <edge id=":v2_0" function="internal">
        <lane id=":v2_0_0" index="0" speed="13.89" length="4.56" shape="-35.99,40.86 -36.34,39.74 -36.41,38.63 -36.21,37.55 -35.72,36.48"/>
    </edge>
    <edge id=":v2_1" function="internal">
        <lane id=":v2_1_0" index="0" speed="13.89" length="1.52" shape="-32.96,38.11 -33.13,38.47 -33.20,38.83 -33.17,39.20 -33.05,39.57"/>
    </edge>
    <edge id=":v3_0" function="internal">
        <lane id=":v3_0_0" index="0" speed="13.89" length="14.60" shape="0.12,5.84 -4.63,3.59 -8.43,2.67 -11.27,3.07 -13.17,4.79"/>
    </edge>
    <edge id=":v3_1" function="internal">
        <lane id=":v3_1_0" index="0" speed="13.89" length="21.79" shape="0.12,5.84 -5.31,2.00 -8.49,-2.23 -9.42,-6.83 -8.10,-11.80"/>
    </edge>
    <edge id=":v3_2" function="internal">
        <lane id=":v3_2_0" index="0" speed="13.89" length="21.50" shape="0.12,5.84 -5.73,1.79 -7.33,-1.47 -4.67,-3.94 2.26,-5.61"/>
    </edge>
    <edge id=":v3_3" function="internal">
        <lane id=":v3_3_0" index="0" speed="13.89" length="10.30" shape="2.70,-2.44 -0.61,-1.64 -1.89,-0.46 -1.13,1.11 1.68,3.05"/>
    </edge>
    <edge id=":v3_4" function="internal">
        <lane id=":v3_4_0" index="0" speed="13.89" length="17.94" shape="2.70,-2.44 -3.03,-1.32 -7.58,0.26 -10.96,2.30 -13.17,4.79"/>
    </edge>
    <edge id=":v3_5" function="internal">
        <lane id=":v3_5_0" index="0" speed="13.89" length="7.51" shape="2.70,-2.44 -4.10,-2.16 -4.76,-2.40"/>
    </edge>
    <edge id=":v3_12" function="internal">
        <lane id=":v3_12_0" index="0" speed="13.89" length="12.26" shape="-4.76,-2.40 -8.16,-3.63 -9.50,-6.85 -8.10,-11.80"/>
    </edge>
    <edge id=":v3_6" function="internal">
        <lane id=":v3_6_0" index="0" speed="13.89" length="11.92" shape="-5.21,-10.43 -5.86,-7.77 -4.83,-6.08 -2.13,-5.36 2.26,-5.61"/>
    </edge>
    <edge id=":v3_7" function="internal">
        <lane id=":v3_7_0" index="0" speed="13.89" length="16.89" shape="-5.21,-10.43 -6.13,-6.73 -5.29,-3.25 -2.69,0.01 1.68,3.05"/>
    </edge>
    <edge id=":v3_8" function="internal">
        <lane id=":v3_8_0" index="0" speed="13.89" length="17.19" shape="-5.21,-10.43 -7.00,-6.75 -9.03,-2.74 -11.15,1.24 -13.17,4.79"/>
    </edge>
    <edge id=":v3_9" function="internal">
        <lane id=":v3_9_0" index="0" speed="13.89" length="16.89" shape="-15.92,3.16 -13.92,-0.36 -11.86,-4.24 -9.87,-8.16 -8.10,-11.80"/>
    </edge>
    <edge id=":v3_10" function="internal">
        <lane id=":v3_10_0" index="0" speed="13.89" length="20.79" shape="-15.92,3.16 -13.27,0.07 -9.36,-2.42 -4.19,-4.31 2.26,-5.61"/>
    </edge>
    <edge id=":v3_11" function="internal">
        <lane id=":v3_11_0" index="0" speed="13.89" length="7.90" shape="-15.92,3.16 -13.16,0.36 -9.31,-0.60"/>
    </edge>
    <edge id=":v3_13" function="internal">
        <lane id=":v3_13_0" index="0" speed="13.89" length="11.66" shape="-9.31,-0.60 -4.36,0.30 1.68,3.05"/>
    </edge>
    <edge id=":v4_0" function="internal">
        <lane id=":v4_0_0" index="0" speed="13.89" length="0.98" shape="47.40,-8.43 47.15,-8.56 46.95,-8.61 46.75,-8.62 46.47,-8.59"/>
    </edge>
    <edge id=":v4_1" function="internal">
        <lane id=":v4_1_0" index="0" speed="13.89" length="2.93" shape="46.02,-11.76 46.88,-11.86 47.48,-11.84 48.06,-11.66 48.84,-11.30"/>
    </edge>
    <edge id=":v5_0" function="internal">
        <lane id=":v5_0_0" index="0" speed="13.89" length="9.16" shape="93.44,20.37 91.94,18.12 90.29,17.23 88.47,17.71 86.49,19.54"/>
    </edge>
    <edge id=":v5_1" function="internal">
        <lane id=":v5_1_0" index="0" speed="13.89" length="15.32" shape="93.44,20.37 91.53,17.07 89.12,14.04 86.28,11.43 83.08,9.41"/>
    </edge>
    <edge id=":v5_2" function="internal">
        <lane id=":v5_2_0" index="0" speed="13.89" length="17.37" shape="84.52,6.55 87.94,8.80 91.28,11.91 94.19,15.45 96.32,18.98"/>
    </edge>
    <edge id=":v5_3" function="internal">
        <lane id=":v5_3_0" index="0" speed="13.89" length="7.77" shape="84.52,6.55 88.00,9.04 89.48,12.04 89.46,12.18"/>
    </edge>
    <edge id=":v5_6" function="internal">
        <lane id=":v5_6_0" index="0" speed="13.89" length="8.11" shape="89.46,12.18 88.98,15.54 86.49,19.54"/>
    </edge>
    <edge id=":v5_4" function="internal">
        <lane id=":v5_4_0" index="0" speed="13.89" length="9.84" shape="84.01,17.52 85.62,14.98 86.00,12.78 85.16,10.92 83.08,9.41"/>
    </edge>
    <edge id=":v5_5" function="internal">
        <lane id=":v5_5_0" index="0" speed="13.89" length="16.22" shape="84.01,17.52 87.52,14.27 90.74,13.43 93.67,15.00 96.32,18.98"/>
    </edge>
    <edge id=":v6_0" function="internal">
        <lane id=":v6_0_0" index="0" speed="13.89" length="8.05" shape="111.83,51.07 112.50,53.19 112.32,54.98 111.27,56.45 109.36,57.59"/>
    </edge>
    <edge id=":v6_1" function="internal">
        <lane id=":v6_1_0" index="0" speed="13.89" length="2.68" shape="108.13,54.64 108.76,54.26 109.11,53.77 109.17,53.17 108.95,52.46"/>
    </edge>
    <edge id=":v7_0" function="internal">
        <lane id=":v7_0_0" index="0" speed="13.89" length="10.65" shape="86.22,97.04 84.66,95.21 82.57,93.99 79.95,93.39 76.81,93.39"/>
    </edge>
    <edge id=":v7_1" function="internal">
        <lane id=":v7_1_0" index="0" speed="13.89" length="14.19" shape="86.22,97.04 84.47,93.87 83.05,90.71 81.87,87.44 80.83,83.97"/>
    </edge>
    <edge id=":v7_2" function="internal">
        <lane id=":v7_2_0" index="0" speed="13.89" length="13.31" shape="83.91,83.11 84.90,86.46 85.96,89.45 87.26,92.33 88.95,95.38"/>
    </edge>
    <edge id=":v7_3" function="internal">
        <lane id=":v7_3_0" index="0" speed="13.89" length="14.93" shape="83.91,83.11 84.45,87.28 83.44,90.38 80.90,92.42 76.81,93.39"/>
    </edge>
    <edge id=":v7_4" function="internal">
        <lane id=":v7_4_0" index="0" speed="13.89" length="9.06" shape="76.52,90.21 79.00,89.61 80.54,88.38 81.15,86.50 80.83,83.97"/>
    </edge>
    <edge id=":v7_5" function="internal">
        <lane id=":v7_5_0" index="0" speed="13.89" length="14.23" shape="76.52,90.21 80.60,90.23 84.03,91.10 86.81,92.81 88.95,95.38"/>
    </edge>
    <edge id=":v8_0" function="internal">
        <lane id=":v8_0_0" index="0" speed="13.89" length="6.91" shape="29.21,97.72 27.35,97.63 25.89,96.99 24.81,95.82 24.12,94.09"/>
    </edge>
    <edge id=":v8_1" function="internal">
        <lane id=":v8_1_0" index="0" speed="13.89" length="2.30" shape="27.22,93.32 27.45,93.89 27.81,94.29 28.30,94.50 28.92,94.53"/>
    </edge>

    <edge id="-edge1" from="v8" to="v7" priority="1">
        <lane id="-edge1_0" index="0" speed="13.89" length="47.79" shape="28.92,94.53 76.52,90.21"/>
    </edge>
    <edge id="-edge2" from="v5" to="v4" priority="1">
        <lane id="-edge2_0" index="0" speed="13.89" length="39.89" shape="83.08,9.41 47.40,-8.43"/>
    </edge>
    <edge id="-gneE1" from="v2" to="v1" priority="1">
        <lane id="-gneE1_0" index="0" speed="13.89" length="38.45" shape="-33.05,39.57 -17.62,74.79"/>
    </edge>
    <edge id="-gneE10" from="v14" to="v13" priority="-1">
        <lane id="-gneE10_0" index="0" speed="13.89" length="12.52" shape="57.58,70.13 69.99,68.39"/>
    </edge>
    <edge id="-gneE11" from="v12" to="v13" priority="-1">
        <lane id="-gneE11_0" index="0" speed="13.89" length="15.69" shape="70.56,46.23 76.61,60.71"/>
    </edge>
    <edge id="-gneE12" from="v7" to="v13" priority="-1">
        <lane id="-gneE12_0" index="0" speed="13.89" length="8.42" shape="80.83,83.97 78.57,75.85"/>
    </edge>
    <edge id="-gneE13" from="v6" to="v13" priority="-1">
        <lane id="-gneE13_0" index="0" speed="13.89" length="25.82" shape="109.36,57.59 85.54,67.55"/>
    </edge>
    <edge id="-gneE14" from="v8" to="v10" priority="-1">
        <lane id="-gneE14_0" index="0" speed="13.89" length="13.79" shape="24.12,94.09 20.80,80.71"/>
    </edge>
    <edge id="-gneE15" from="v1" to="v10" priority="-1">
        <lane id="-gneE15_0" index="0" speed="13.89" length="29.18" shape="-15.95,75.73 12.99,71.93"/>
    </edge>
    <edge id="-gneE16" from="v11" to="v10" priority="-1">
        <lane id="-gneE16_0" index="0" speed="13.89" length="19.97" shape="17.64,45.39 20.84,65.10"/>
    </edge>
    <edge id="-gneE17" from="v15" to="v3" priority="-1">
        <lane id="-gneE17_0" index="0" speed="13.89" length="20.80" shape="3.70,-29.24 -5.21,-10.43"/>
    </edge>
    <edge id="-gneE18" from="v12" to="v3" priority="-1">
        <lane id="-gneE18_0" index="0" speed="13.89" length="59.45" shape="52.04,34.81 0.12,5.84"/>
    </edge>
    <edge id="-gneE19" from="v5" to="v12" priority="-1">
        <lane id="-gneE19_0" index="0" speed="13.89" length="22.58" shape="86.49,19.54 72.18,37.01"/>
    </edge>
    <edge id="-gneE2" from="v3" to="v2" priority="1">
        <lane id="-gneE2_0" index="0" speed="13.89" length="38.76" shape="-13.17,4.79 -32.96,38.11"/>
    </edge>
    <edge id="-gneE3" from="v4" to="v3" priority="1">
        <lane id="-gneE3_0" index="0" speed="13.89" length="44.19" shape="46.47,-8.59 2.70,-2.44"/>
    </edge>
    <edge id="-gneE5" from="v6" to="v5" priority="1">
        <lane id="-gneE5_0" index="0" speed="13.89" length="35.65" shape="108.95,52.46 93.44,20.37"/>
    </edge>
    <edge id="-gneE7" from="v7" to="v9" priority="-1">
        <lane id="-gneE7_0" index="0" speed="13.89" length="30.43" shape="88.95,95.38 104.79,121.36"/>
    </edge>
    <edge id="-gneE8" from="v12" to="v11" priority="-1">
        <lane id="-gneE8_0" index="0" speed="13.89" length="31.64" shape="50.83,43.02 19.20,43.53"/>
    </edge>
    <edge id="-gneE9" from="v14" to="v10" priority="-1">
        <lane id="-gneE9_0" index="0" speed="13.89" length="29.01" shape="57.47,73.34 28.46,73.98"/>
    </edge>
    <edge id="edge1" from="v7" to="v8" priority="1">
        <lane id="edge1_0" index="0" speed="13.89" length="47.79" shape="76.81,93.39 29.21,97.72"/>
    </edge>
    <edge id="edge2" from="v4" to="v5" priority="1">
        <lane id="edge2_0" index="0" speed="13.89" length="39.89" shape="48.84,-11.30 84.52,6.55"/>
    </edge>
    <edge id="gneE1" from="v1" to="v2" priority="1">
        <lane id="gneE1_0" index="0" speed="13.89" length="38.45" shape="-20.55,76.07 -35.99,40.86"/>
    </edge>
    <edge id="gneE10" from="v13" to="v14" priority="-1">
        <lane id="gneE10_0" index="0" speed="13.89" length="12.52" shape="70.43,71.56 58.03,73.30"/>
    </edge>
    <edge id="gneE11" from="v13" to="v12" priority="-1">
        <lane id="gneE11_0" index="0" speed="13.89" length="15.69" shape="73.66,61.95 67.61,47.47"/>
    </edge>
    <edge id="gneE12" from="v13" to="v7" priority="-1">
        <lane id="gneE12_0" index="0" speed="13.89" length="8.42" shape="81.65,75.00 83.91,83.11"/>
    </edge>
    <edge id="gneE13" from="v13" to="v6" priority="-1">
        <lane id="gneE13_0" index="0" speed="13.89" length="25.82" shape="84.31,64.60 108.13,54.64"/>
    </edge>
    <edge id="gneE14" from="v10" to="v8" priority="-1">
        <lane id="gneE14_0" index="0" speed="13.89" length="13.79" shape="23.91,79.94 27.22,93.32"/>
    </edge>
    <edge id="gneE15" from="v10" to="v1" priority="-1">
        <lane id="gneE15_0" index="0" speed="13.89" length="29.18" shape="13.40,75.10 -15.53,78.90"/>
    </edge>
    <edge id="gneE16" from="v10" to="v11" priority="-1">
        <lane id="gneE16_0" index="0" speed="13.89" length="19.97" shape="17.68,65.61 14.48,45.90"/>
    </edge>
    <edge id="gneE17" from="v3" to="v15" priority="-1">
        <lane id="gneE17_0" index="0" speed="13.89" length="20.80" shape="-8.10,-11.80 0.80,-30.60"/>
    </edge>
    <edge id="gneE18" from="v3" to="v12" priority="-1">
        <lane id="gneE18_0" index="0" speed="13.89" length="59.45" shape="1.68,3.05 53.60,32.01"/>
    </edge>
    <edge id="gneE19" from="v12" to="v5" priority="-1">
        <lane id="gneE19_0" index="0" speed="13.89" length="22.58" shape="69.70,34.98 84.01,17.52"/>
    </edge>
    <edge id="gneE2" from="v2" to="v3" priority="1">
        <lane id="gneE2_0" index="0" speed="13.89" length="38.76" shape="-35.72,36.48 -15.92,3.16"/>
    </edge>
    <edge id="gneE3" from="v3" to="v4" priority="1">
        <lane id="gneE3_0" index="0" speed="13.89" length="44.19" shape="2.26,-5.61 46.02,-11.76"/>
    </edge>
    <edge id="gneE5" from="v5" to="v6" priority="1">
        <lane id="gneE5_0" index="0" speed="13.89" length="35.65" shape="96.32,18.98 111.83,51.07"/>
    </edge>
    <edge id="gneE7" from="v9" to="v7" priority="-1">
        <lane id="gneE7_0" index="0" speed="13.89" length="30.43" shape="102.05,123.02 86.22,97.04"/>
    </edge>
    <edge id="gneE8" from="v11" to="v12" priority="-1">
        <lane id="gneE8_0" index="0" speed="13.89" length="31.64" shape="19.14,40.33 50.78,39.82"/>
    </edge>
    <edge id="gneE9" from="v10" to="v14" priority="-1">
        <lane id="gneE9_0" index="0" speed="13.89" length="29.01" shape="28.39,70.78 57.40,70.14"/>
    </edge>

    <junction id="v1" type="priority" x="-18.12" y="77.63" incLanes="gneE15_0 -gneE1_0" intLanes=":v1_0_0 :v1_1_0" shape="-15.32,80.49 -16.15,74.14 -22.02,76.71">
        <request index="0" response="00" foes="00" cont="0"/>
        <request index="1" response="00" foes="00" cont="0"/>
        <param key="destination" value="v5"/>
    </junction>
    <junction id="v10" type="priority" x="20.43" y="72.56" incLanes="-gneE14_0 -gneE9_0 -gneE16_0 -gneE15_0" intLanes=":v10_0_0 :v10_1_0 :v10_12_0 :v10_3_0 :v10_4_0 :v10_5_0 :v10_6_0 :v10_7_0 :v10_13_0 :v10_9_0 :v10_10_0 :v10_11_0" shape="19.25,81.09 25.46,79.55 28.50,75.58 28.36,69.18 22.42,64.84 16.10,65.87 12.78,70.34 13.61,76.68">
        <request index="0"  response="000000000000" foes="000100010000" cont="0"/>
        <request index="1"  response="000000000000" foes="111100110000" cont="0"/>
        <request index="2"  response="000011000000" foes="110011110000" cont="1"/>
        <request index="3"  response="000010000000" foes="100010000000" cont="0"/>
        <request index="4"  response="000110000111" foes="100110000111" cont="0"/>
        <request index="5"  response="011110000110" foes="011110000110" cont="0"/>
        <request index="6"  response="000000000000" foes="010000000100" cont="0"/>
        <request index="7"  response="000000000000" foes="110000111100" cont="0"/>
        <request index="8"  response="000000000011" foes="110000110011" cont="1"/>
        <request index="9"  response="000000000010" foes="000000100010" cont="0"/>
        <request index="10" response="000111000110" foes="000111100110" cont="0"/>
        <request index="11" response="000110011110" foes="000110011110" cont="0"/>
    </junction>
    <junction id="v11" type="priority" x="15.47" y="41.99" incLanes="gneE16_0 -gneE8_0" intLanes=":v11_0_0 :v11_1_0" shape="12.90,46.15 19.22,45.13 19.12,38.73">
        <request index="0" response="00" foes="00" cont="0"/>
        <request index="1" response="00" foes="00" cont="0"/>
    </junction>
    <junction id="v12" type="priority" x="66.71" y="41.16" incLanes="gneE11_0 -gneE19_0 gneE18_0 gneE8_0" intLanes=":v12_0_0 :v12_1_0 :v12_12_0 :v12_3_0 :v12_4_0 :v12_5_0 :v12_6_0 :v12_7_0 :v12_13_0 :v12_9_0 :v12_10_0 :v12_11_0" shape="66.14,48.09 72.04,45.62 73.42,38.02 68.47,33.97 54.38,30.62 51.26,36.20 50.75,38.22 50.86,44.62">
        <request index="0"  response="000000000000" foes="000100010000" cont="0"/>
        <request index="1"  response="000000000000" foes="111100110000" cont="0"/>
        <request index="2"  response="000011000000" foes="110011110000" cont="1"/>
        <request index="3"  response="000010000000" foes="100010000000" cont="0"/>
        <request index="4"  response="000110000111" foes="100110000111" cont="0"/>
        <request index="5"  response="011110000110" foes="011110000110" cont="0"/>
        <request index="6"  response="000000000000" foes="010000000100" cont="0"/>
        <request index="7"  response="000000000000" foes="110000111100" cont="0"/>
        <request index="8"  response="000000000011" foes="110000110011" cont="1"/>
        <request index="9"  response="000000000010" foes="000000100010" cont="0"/>
        <request index="10" response="000111000110" foes="000111100110" cont="0"/>
        <request index="11" response="000110011110" foes="000110011110" cont="0"/>
    </junction>
    <junction id="v13" type="priority" x="78.28" y="68.85" incLanes="-gneE12_0 -gneE13_0 -gneE11_0 -gneE10_0" intLanes=":v13_0_0 :v13_1_0 :v13_12_0 :v13_3_0 :v13_4_0 :v13_5_0 :v13_6_0 :v13_7_0 :v13_13_0 :v13_9_0 :v13_10_0 :v13_11_0" shape="77.03,76.28 83.19,74.57 86.16,69.02 83.69,63.12 78.09,60.10 72.19,62.56 69.77,66.81 70.65,73.15">
        <request index="0"  response="000000000000" foes="000100010000" cont="0"/>
        <request index="1"  response="000000000000" foes="111100110000" cont="0"/>
        <request index="2"  response="000011000000" foes="110011110000" cont="1"/>
        <request index="3"  response="000010000000" foes="100010000000" cont="0"/>
        <request index="4"  response="000110000111" foes="100110000111" cont="0"/>
        <request index="5"  response="011110000110" foes="011110000110" cont="0"/>
        <request index="6"  response="000000000000" foes="010000000100" cont="0"/>
        <request index="7"  response="000000000000" foes="110000111100" cont="0"/>
        <request index="8"  response="000000000011" foes="110000110011" cont="1"/>
        <request index="9"  response="000000000010" foes="000000100010" cont="0"/>
        <request index="10" response="000111000110" foes="000111100110" cont="0"/>
        <request index="11" response="000110011110" foes="000110011110" cont="0"/>
    </junction>
    <junction id="v14" type="priority" x="57.62" y="71.74" incLanes="gneE10_0 gneE9_0" intLanes=":v14_0_0 :v14_1_0" shape="58.25,74.88 57.36,68.54 57.50,74.94">
        <request index="0" response="00" foes="00" cont="0"/>
        <request index="1" response="00" foes="00" cont="0"/>
    </junction>
    <junction id="v15" type="dead_end" x="2.25" y="-29.92" incLanes="gneE17_0" intLanes="" shape="2.25,-29.92 -0.64,-31.29 2.25,-29.92">
        <param key="destination" value="v7"/>
    </junction>
    <junction id="v2" type="priority" x="-35.18" y="38.71" incLanes="gneE1_0 -gneE2_0" intLanes=":v2_0_0 :v2_1_0" shape="-37.45,41.50 -31.59,38.93 -37.09,35.66">
        <request index="0" response="00" foes="00" cont="0"/>
        <request index="1" response="00" foes="00" cont="0"/>
    </junction>
    <junction id="v3" type="priority" x="-10.91" y="-2.14" incLanes="-gneE18_0 -gneE3_0 -gneE17_0 gneE2_0" intLanes=":v3_0_0 :v3_1_0 :v3_2_0 :v3_3_0 :v3_4_0 :v3_12_0 :v3_6_0 :v3_7_0 :v3_8_0 :v3_9_0 :v3_10_0 :v3_13_0" shape="-0.66,7.24 2.46,1.65 2.93,-0.85 2.03,-7.19 -3.76,-9.75 -9.55,-12.49 -17.29,2.34 -11.79,5.61">
        <request index="0"  response="000000010000" foes="000100010000" cont="0"/>
        <request index="1"  response="111000110000" foes="111100110000" cont="0"/>
        <request index="2"  response="110011110000" foes="110011110000" cont="0"/>
        <request index="3"  response="000000000000" foes="100010000000" cont="0"/>
        <request index="4"  response="000000000000" foes="100110000111" cont="0"/>
        <request index="5"  response="011000000000" foes="011110000110" cont="1"/>
        <request index="6"  response="010000000000" foes="010000000100" cont="0"/>
        <request index="7"  response="110000111000" foes="110000111100" cont="0"/>
        <request index="8"  response="110000110011" foes="110000110011" cont="0"/>
        <request index="9"  response="000000000000" foes="000000100010" cont="0"/>
        <request index="10" response="000000000000" foes="000111100110" cont="0"/>
        <request index="11" response="000000011000" foes="000110011110" cont="1"/>
    </junction>
    <junction id="v4" type="priority" x="47.23" y="-10.31" incLanes="-edge2_0 gneE3_0" intLanes=":v4_0_0 :v4_1_0" shape="46.69,-7.00 49.55,-12.73 45.80,-13.34">
        <request index="0" response="00" foes="00" cont="0"/>
        <request index="1" response="00" foes="00" cont="0"/>
    </junction>
    <junction id="v5" type="priority" x="90.96" y="11.56" incLanes="-gneE5_0 edge2_0 gneE19_0" intLanes=":v5_0_0 :v5_1_0 :v5_2_0 :v5_6_0 :v5_4_0 :v5_5_0" shape="92.00,21.07 97.76,18.28 85.23,5.12 82.37,10.84 82.77,16.50 87.72,20.56">
        <request index="0" response="000000" foes="001000" cont="0"/>
        <request index="1" response="000000" foes="111000" cont="0"/>
        <request index="2" response="000000" foes="100000" cont="0"/>
        <request index="3" response="000011" foes="100011" cont="1"/>
        <request index="4" response="000010" foes="000010" cont="0"/>