<?xml version="1.0" encoding="UTF-8"?>

<net version="1.9" xmlns:xsi="http://www.w3.org/2001/XMLSchema-instance" xsi:noNamespaceSchemaLocation="http://sumo.dlr.de/xsd/net_file.xsd">

    <location netOffset="0.00,0.00" convBoundary="-56.74,-85.04,139.51,122.19" origBoundary="-10000000000.00,-10000000000.00,10000000000.00,10000000000.00" projParameter="!"/>

    <edge id=":v1_0" function="internal">
        <lane id=":v1_0_0" index="0" speed="13.89" length="14.54" shape="-11.56,78.38 -25.95,80.45"/>
    </edge>
    <edge id=":v1_1" function="internal">
        <lane id=":v1_1_0" index="0" speed="13.89" length="14.71" shape="-11.56,78.38 -15.10,78.28 -18.16,76.98 -20.75,74.48 -22.86,70.79"/>
    </edge>
    <edge id=":v1_2" function="internal">
        <lane id=":v1_2_0" index="0" speed="13.89" length="10.56" shape="-19.93,69.51 -18.39,72.26 -16.55,74.12 -14.41,75.11 -11.98,75.21"/>
    </edge>
    <edge id=":v1_3" function="internal">
        <lane id=":v1_3_0" index="0" speed="13.89" length="15.29" shape="-19.93,69.51 -18.77,73.71 -19.38,76.94 -21.78,79.18 -25.95,80.45"/>
    </edge>
    <edge id=":v1_4" function="internal">
        <lane id=":v1_4_0" index="0" speed="13.89" length="9.08" shape="-26.44,77.28 -23.96,76.53 -22.54,75.20 -22.17,73.29 -22.86,70.79"/>
    </edge>
    <edge id=":v1_5" function="internal">
        <lane id=":v1_5_0" index="0" speed="13.89" length="14.60" shape="-26.44,77.28 -11.98,75.21"/>
    </edge>
    <edge id=":v10_0" function="internal">
        <lane id=":v10_0_0" index="0" speed="13.89" length="10.34" shape="20.80,80.71 19.75,77.97 18.16,76.12 16.05,75.16 13.40,75.10"/>
    </edge>
    <edge id=":v10_1" function="internal">
        <lane id=":v10_1_0" index="0" speed="13.89" length="15.41" shape="20.80,80.71 17.68,65.61"/>
    </edge>
    <edge id=":v10_2" function="internal">
        <lane id=":v10_2_0" index="0" speed="13.89" length="6.47" shape="20.80,80.71 20.37,76.45 21.13,74.39"/>
    </edge>
    <edge id=":v10_12" function="internal">
        <lane id=":v10_12_0" index="0" speed="13.89" length="8.63" shape="21.13,74.39 21.50,73.38 24.17,71.49 28.39,70.78"/>
    </edge>
    <edge id=":v10_3" function="internal">
        <lane id=":v10_3_0" index="0" speed="13.89" length="9.06" shape="28.46,73.98 25.93,74.41 24.32,75.54 23.65,77.38 23.91,79.94"/>
    </edge>
    <edge id=":v10_4" function="internal">
        <lane id=":v10_4_0" index="0" speed="13.89" length="15.11" shape="28.46,73.98 24.70,74.11 20.92,74.34 17.14,74.66 13.40,75.10"/>
    </edge>
    <edge id=":v10_5" function="internal">
        <lane id=":v10_5_0" index="0" speed="13.89" length="15.13" shape="28.46,73.98 24.27,73.54 21.07,71.99 18.88,69.35 17.68,65.61"/>
    </edge>
    <edge id=":v10_6" function="internal">
        <lane id=":v10_6_0" index="0" speed="13.89" length="10.47" shape="20.84,65.10 21.67,67.64 23.20,69.44 25.44,70.48 28.39,70.78"/>
    </edge>
    <edge id=":v10_7" function="internal">
        <lane id=":v10_7_0" index="0" speed="13.89" length="15.15" shape="20.84,65.10 23.91,79.94"/>
    </edge>
    <edge id=":v10_8" function="internal">
        <lane id=":v10_8_0" index="0" speed="13.89" length="5.50" shape="20.84,65.10 20.91,69.04 20.32,70.48"/>
    </edge>
    <edge id=":v10_13" function="internal">
        <lane id=":v10_13_0" index="0" speed="13.89" length="8.81" shape="20.32,70.48 19.70,72.02 17.19,74.04 13.40,75.10"/>
    </edge>
    <edge id=":v10_9" function="internal">
        <lane id=":v10_9_0" index="0" speed="13.89" length="9.03" shape="12.99,71.93 15.38,71.25 16.96,69.98 17.73,68.10 17.68,65.61"/>
    </edge>
    <edge id=":v10_10" function="internal">
        <lane id=":v10_10_0" index="0" speed="13.89" length="15.45" shape="12.99,71.93 16.78,71.49 20.67,71.15 24.57,70.92 28.39,70.78"/>
    </edge>
    <edge id=":v10_11" function="internal">
        <lane id=":v10_11_0" index="0" speed="13.89" length="15.09" shape="12.99,71.93 16.91,72.00 20.04,73.36 22.37,76.01 23.91,79.94"/>
    </edge>
    <edge id=":v11_0" function="internal">
        <lane id=":v11_0_0" index="0" speed="13.89" length="8.58" shape="14.48,45.90 14.44,43.50 15.20,41.77 16.77,40.71 19.14,40.33"/>
    </edge>
    <edge id=":v11_1" function="internal">
        <lane id=":v11_1_0" index="0" speed="13.89" length="2.86" shape="19.20,43.53 18.40,43.66 17.88,44.01 17.63,44.59 17.64,45.39"/>
    </edge>
    <edge id=":v12_0" function="internal">
        <lane id=":v12_0_0" index="0" speed="13.89" length="18.06" shape="67.61,47.47 65.83,45.43 62.44,44.01 57.44,43.21 50.83,43.02"/>
    </edge>
    <edge id=":v12_1" function="internal">
        <lane id=":v12_1_0" index="0" speed="13.89" length="20.29" shape="67.61,47.47 64.98,43.89 60.74,40.32 56.04,37.16 52.04,34.81"/>
    </edge>
    <edge id=":v12_2" function="internal">
        <lane id=":v12_2_0" index="0" speed="13.89" length="3.84" shape="67.61,47.47 66.71,44.22 66.72,43.75"/>
    </edge>
    <edge id=":v12_12" function="internal">
        <lane id=":v12_12_0" index="0" speed="13.89" length="9.50" shape="66.72,43.75 66.76,41.06 67.76,37.98 69.70,34.98"/>
    </edge>
    <edge id=":v12_3" function="internal">
        <lane id=":v12_3_0" index="0" speed="13.89" length="9.87" shape="72.18,37.01 70.72,39.24 69.96,41.53 69.91,43.86 70.56,46.23"/>
    </edge>
    <edge id=":v12_4" function="internal">
        <lane id=":v12_4_0" index="0" speed="13.89" length="22.73" shape="72.18,37.01 69.08,39.54 64.49,41.38 58.41,42.54 50.83,43.02"/>
    </edge>
    <edge id=":v12_5" function="internal">
        <lane id=":v12_5_0" index="0" speed="13.89" length="21.77" shape="72.18,37.01 69.02,39.20 64.60,39.56 58.94,38.10 52.04,34.81"/>
    </edge>
    <edge id=":v12_6" function="internal">
        <lane id=":v12_6_0" index="0" speed="13.89" length="17.37" shape="53.60,32.01 59.37,34.86 63.99,36.30 67.43,36.34 69.70,34.98"/>
    </edge>
    <edge id=":v12_7" function="internal">
        <lane id=":v12_7_0" index="0" speed="13.89" length="22.34" shape="53.60,32.01 57.82,34.61 63.00,38.31 67.71,42.41 70.56,46.23"/>
    </edge>
    <edge id=":v12_8" function="internal">
        <lane id=":v12_8_0" index="0" speed="13.89" length="4.60" shape="53.60,32.01 56.37,35.01 56.41,35.53"/>
    </edge>
    <edge id=":v12_13" function="internal">
        <lane id=":v12_13_0" index="0" speed="13.89" length="10.83" shape="56.41,35.53 56.64,38.63 54.70,41.69 50.83,43.02"/>
    </edge>
    <edge id=":v12_9" function="internal">
        <lane id=":v12_9_0" index="0" speed="13.89" length="11.19" shape="50.78,39.82 54.59,39.44 56.07,38.48 55.22,36.94 52.04,34.81"/>
    </edge>
    <edge id=":v12_10" function="internal">
        <lane id=":v12_10_0" index="0" speed="13.89" length="19.98" shape="50.78,39.82 57.65,39.42 63.09,38.49 67.11,37.01 69.70,34.98"/>
    </edge>
    <edge id=":v12_11" function="internal">
        <lane id=":v12_11_0" index="0" speed="13.89" length="21.81" shape="50.78,39.82 58.39,40.12 64.22,41.28 68.28,43.32 70.56,46.23"/>
    </edge>
    <edge id=":v13_0" function="internal">
        <lane id=":v13_0_0" index="0" speed="13.89" length="10.18" shape="78.57,75.85 77.51,73.63 75.81,72.17 73.45,71.48 70.43,71.56"/>
    </edge>
    <edge id=":v13_1" function="internal">
        <lane id=":v13_1_0" index="0" speed="13.89" length="14.75" shape="78.57,75.85 77.51,72.30 76.34,68.82 75.05,65.39 73.66,61.95"/>
    </edge>
    <edge id=":v13_2" function="internal">
        <lane id=":v13_2_0" index="0" speed="13.89" length="5.53" shape="78.57,75.85 78.10,72.17 78.55,70.41"/>
    </edge>
    <edge id=":v13_12" function="internal">
        <lane id=":v13_12_0" index="0" speed="13.89" length="8.51" shape="78.55,70.41 78.90,69.07 80.97,66.55 84.31,64.60"/>
    </edge>
    <edge id=":v13_3" function="internal">
        <lane id=":v13_3_0" index="0" speed="13.89" length="9.34" shape="85.54,67.55 83.29,68.85 81.90,70.53 81.35,72.57 81.65,75.00"/>
    </edge>
    <edge id=":v13_4" function="internal">
        <lane id=":v13_4_0" index="0" speed="13.89" length="15.67" shape="85.54,67.55 81.93,68.89 78.11,70.02 74.23,70.92 70.43,71.56"/>
    </edge>
    <edge id=":v13_5" function="internal">
        <lane id=":v13_5_0" index="0" speed="13.89" length="14.97" shape="85.54,67.55 81.75,68.47 78.51,67.85 75.81,65.67 73.66,61.95"/>
    </edge>
    <edge id=":v13_6" function="internal">
        <lane id=":v13_6_0" index="0" speed="13.89" length="9.81" shape="76.61,60.71 78.04,63.22 79.80,64.71 81.89,65.16 84.31,64.60"/>
    </edge>
    <edge id=":v13_7" function="internal">
        <lane id=":v13_7_0" index="0" speed="13.89" length="15.15" shape="76.61,60.71 78.03,64.21 79.35,67.78 80.57,71.38 81.65,75.00"/>
    </edge>
    <edge id=":v13_8" function="internal">
        <lane id=":v13_8_0" index="0" speed="13.89" length="6.32" shape="76.61,60.71 77.71,64.93 77.31,66.85"/>
    </edge>
    <edge id=":v13_13" function="internal">
        <lane id=":v13_13_0" index="0" speed="13.89" length="8.95" shape="77.31,66.85 77.04,68.14 74.61,70.35 70.43,71.56"/>
    </edge>
    <edge id=":v13_9" function="internal">
        <lane id=":v13_9_0" index="0" speed="13.89" length="9.07" shape="69.99,68.39 72.47,67.68 73.91,66.36 74.31,64.45 73.66,61.95"/>
    </edge>
    <edge id=":v13_10" function="internal">
        <lane id=":v13_10_0" index="0" speed="13.89" length="14.85" shape="69.99,68.39 73.67,67.78 77.27,66.96 80.82,65.91 84.31,64.60"/>
    </edge>
    <edge id=":v13_11" function="internal">
        <lane id=":v13_11_0" index="0" speed="13.89" length="14.86" shape="69.99,68.39 74.26,68.31 77.63,69.38 80.10,71.61 81.65,75.00"/>
    </edge>
    <edge id=":v14_0" function="internal">
        <lane id=":v14_0_0" index="0" speed="13.89" length="0.56" shape="58.03,73.30 57.86,73.32 57.75,73.33 57.63,73.34 57.47,73.34"/>
    </edge>
    <edge id=":v14_1" function="internal">
        <lane id=":v14_1_0" index="0" speed="13.89" length="0.19" shape="57.40,70.14 57.45,70.14 57.49,70.14 57.53,70.14 57.58,70.13"/>
    </edge>
    <edge id=":v15_0" function="internal">
        <lane id=":v15_0_0" index="0" speed="13.89" length="1.57" shape="4.17,-28.59 3.78,-28.49 3.45,-28.30 3.18,-28.04 2.97,-27.69"/>
    </edge>
    <edge id=":v15_1" function="internal">
        <lane id=":v15_1_0" index="0" speed="13.89" length="4.71" shape="0.07,-29.06 0.71,-30.10 1.53,-30.89 2.52,-31.44 3.70,-31.76"/>
    </edge>
    <edge id=":v16_0" function="internal">
        <lane id=":v16_0_0" index="0" speed="13.89" length="10.50" shape="56.05,-36.23 53.52,-35.49 51.66,-34.02 50.46,-31.82 49.94,-28.88"/>
    </edge>
    <edge id=":v16_1" function="internal">
        <lane id=":v16_1_0" index="0" speed="13.89" length="15.01" shape="56.05,-36.23 41.19,-34.15"/>
    </edge>
    <edge id=":v16_2" function="internal">
        <lane id=":v16_2_0" index="0" speed="13.89" length="5.77" shape="56.05,-36.23 52.21,-36.29 50.44,-37.06"/>
    </edge>
    <edge id=":v16_12" function="internal">
        <lane id=":v16_12_0" index="0" speed="13.89" length="8.41" shape="50.44,-37.06 49.27,-37.57 47.22,-40.07 46.07,-43.80"/>
    </edge>
    <edge id=":v16_3" function="internal">
        <lane id=":v16_3_0" index="0" speed="13.89" length="9.15" shape="49.23,-44.31 49.97,-41.90 51.29,-40.28 53.18,-39.44 55.64,-39.40"/>
    </edge>
    <edge id=":v16_4" function="internal">
        <lane id=":v16_4_0" index="0" speed="13.89" length="15.47" shape="49.23,-44.31 49.72,-40.52 49.99,-36.62 50.06,-32.71 49.94,-28.88"/>
    </edge>
    <edge id=":v16_5" function="internal">
        <lane id=":v16_5_0" index="0" speed="13.89" length="14.81" shape="49.23,-44.31 49.26,-40.40 47.93,-37.40 45.24,-35.32 41.19,-34.15"/>
    </edge>
    <edge id=":v16_6" function="internal">
        <lane id=":v16_6_0" index="0" speed="13.89" length="9.61" shape="40.71,-37.31 43.39,-38.07 45.18,-39.41 46.07,-41.31 46.07,-43.80"/>
    </edge>
    <edge id=":v16_7" function="internal">
        <lane id=":v16_7_0" index="0" speed="13.89" length="15.08" shape="40.71,-37.31 55.64,-39.40"/>
    </edge>
    <edge id=":v16_8" function="internal">
        <lane id=":v16_8_0" index="0" speed="13.89" length="6.14" shape="40.71,-37.31 44.97,-37.34 46.68,-36.53"/>
    </edge>
    <edge id=":v16_13" function="internal">
        <lane id=":v16_13_0" index="0" speed="13.89" length="8.90" shape="46.68,-36.53 47.92,-35.94 49.58,-33.12 49.94,-28.88"/>
    </edge>
    <edge id=":v16_9" function="internal">
        <lane id=":v16_9_0" index="0" speed="13.89" length="9.06" shape="46.74,-29.07 46.53,-31.63 45.53,-33.32 43.75,-34.16 41.19,-34.15"/>
    </edge>
    <edge id=":v16_10" function="internal">
        <lane id=":v16_10_0" index="0" speed="13.89" length="14.77" shape="46.74,-29.07 46.87,-32.79 46.82,-36.46 46.55,-40.12 46.07,-43.80"/>
    </edge>
    <edge id=":v16_11" function="internal">
        <lane id=":v16_11_0" index="0" speed="13.89" length="14.98" shape="46.74,-29.07 47.50,-33.19 49.24,-36.28 51.95,-38.35 55.64,-39.40"/>
    </edge>
    <edge id=":v17_0" function="internal">
        <lane id=":v17_0_0" index="0" speed="13.89" length="9.37" shape="44.75,-51.95 44.00,-54.45 42.69,-56.20 40.81,-57.20 38.38,-57.43"/>
    </edge>
    <edge id=":v17_1" function="internal">
        <lane id=":v17_1_0" index="0" speed="13.89" length="14.29" shape="44.75,-51.95 44.67,-55.88 45.88,-58.86 48.38,-60.88 52.16,-61.96"/>
    </edge>
    <edge id=":v17_2" function="internal">
        <lane id=":v17_2_0" index="0" speed="13.89" length="9.03" shape="52.59,-58.79 50.20,-58.11 48.62,-56.83 47.86,-54.95 47.90,-52.46"/>
    </edge>
    <edge id=":v17_3" function="internal">
        <lane id=":v17_3_0" index="0" speed="13.89" length="14.27" shape="52.59,-58.79 38.38,-57.43"/>
    </edge>
    <edge id=":v17_4" function="internal">
        <lane id=":v17_4_0" index="0" speed="13.89" length="14.01" shape="38.21,-60.62 52.16,-61.96"/>
    </edge>
    <edge id=":v17_5" function="internal">
        <lane id=":v17_5_0" index="0" speed="13.89" length="5.39" shape="38.21,-60.62 41.93,-60.28 43.40,-59.52"/>
    </edge>
    <edge id=":v17_6" function="internal">
        <lane id=":v17_6_0" index="0" speed="13.89" length="8.74" shape="43.40,-59.52 44.78,-58.81 46.77,-56.20 47.90,-52.46"/>
    </edge>
    <edge id=":v18_0" function="internal">
        <lane id=":v18_0_0" index="0" speed="13.89" length="1.73" shape="-27.99,-53.89 -28.43,-53.81 -28.81,-53.63 -29.11,-53.35 -29.35,-52.97"/>
    </edge>
    <edge id=":v18_1" function="internal">
        <lane id=":v18_1_0" index="0" speed="13.89" length="5.20" shape="-32.25,-54.32 -31.54,-55.47 -30.62,-56.32 -29.49,-56.85 -28.16,-57.08"/>
    </edge>
    <edge id=":v19_0" function="internal">
        <lane id=":v19_0_0" index="0" speed="13.89" length="2.18" shape="-58.33,2.50 -58.33,1.86 -58.28,1.41 -58.14,0.99 -57.88,0.40"/>
    </edge>
    <edge id=":v19_1" function="internal">
        <lane id=":v19_1_0" index="0" speed="13.89" length="0.73" shape="-54.98,1.76 -55.07,1.96 -55.11,2.10 -55.13,2.25 -55.13,2.46"/>
    </edge>
    <edge id=":v2_0" function="internal">
        <lane id=":v2_0_0" index="0" speed="13.89" length="4.56" shape="-35.99,40.86 -36.34,39.74 -36.41,38.63 -36.21,37.55 -35.72,36.48"/>
    </edge>
    <edge id=":v2_1" function="internal">
        <lane id=":v2_1_0" index="0" speed="13.89" length="1.52" shape="-32.96,38.11 -33.13,38.47 -33.20,38.83 -33.17,39.20 -33.05,39.57"/>
    </edge>
    <edge id=":v20_0" function="internal">
        <lane id=":v20_0_0" index="0" speed="13.89" length="8.55" shape="-51.86,84.42 -54.25,84.44 -55.97,83.66 -57.01,82.09 -57.38,79.73"/>
    </edge>
    <edge id=":v20_1" function="internal">
        <lane id=":v20_1_0" index="0" speed="13.89" length="2.85" shape="-54.18,79.69 -54.06,80.48 -53.71,81.00 -53.14,81.26 -52.34,81.25"/>
    </edge>
    <edge id=":v22_0" function="internal">
        <lane id=":v22_0_0" index="0" speed="13.89" length="8.95" shape="110.48,-61.10 109.78,-63.45 108.50,-65.02 106.63,-65.81 104.18,-65.83"/>
    </edge>
    <edge id=":v22_1" function="internal">
        <lane id=":v22_1_0" index="0" speed="13.89" length="13.32" shape="110.48,-61.10 110.26,-64.82 110.79,-68.11 112.06,-70.96 114.08,-73.38"/>
    </edge>
    <edge id=":v22_2" function="internal">
        <lane id=":v22_2_0" index="0" speed="13.89" length="10.20" shape="116.25,-71.02 114.76,-69.21 113.83,-67.03 113.46,-64.49 113.64,-61.58"/>
    </edge>
    <edge id=":v22_3" function="internal">
        <lane id=":v22_3_0" index="0" speed="13.89" length="13.37" shape="116.25,-71.02 113.51,-68.88 110.70,-67.41 107.64,-66.45 104.18,-65.83"/>
    </edge>
    <edge id=":v22_4" function="internal">
        <lane id=":v22_4_0" index="0" speed="13.89" length="11.48" shape="103.75,-69.00 106.94,-69.49 109.39,-70.17 111.61,-71.36 114.08,-73.38"/>
    </edge>
    <edge id=":v22_5" function="internal">
        <lane id=":v22_5_0" index="0" speed="13.89" length="5.12" shape="103.75,-69.00 107.60,-68.97 108.77,-68.48"/>
    </edge>
    <edge id=":v22_6" function="internal">
        <lane id=":v22_6_0" index="0" speed="13.89" length="8.95" shape="108.77,-68.48 110.53,-67.73 112.55,-65.26 113.64,-61.58"/>
    </edge>
    <edge id=":v23_0" function="internal">
        <lane id=":v23_0_0" index="0" speed="13.89" length="9.30" shape="114.36,-38.22 113.49,-40.51 112.05,-42.05 110.03,-42.82 107.45,-42.83"/>
    </edge>
    <edge id=":v23_1" function="internal">
        <lane id=":v23_1_0" index="0" speed="13.89" length="14.30" shape="114.36,-38.22 111.79,-52.29"/>
    </edge>
    <edge id=":v23_2" function="internal">
        <lane id=":v23_2_0" index="0" speed="13.89" length="14.09" shape="114.96,-52.76 117.49,-38.90"/>
    </edge>
    <edge id=":v23_3" function="internal">
        <lane id=":v23_3_0" index="0" speed="13.89" length="5.60" shape="114.96,-52.76 114.98,-48.84 114.33,-47.29"/>
    </edge>
    <edge id=":v23_6" function="internal">
        <lane id=":v23_6_0" index="0" speed="13.89" length="8.67" shape="114.33,-47.29 113.74,-45.88 111.23,-43.87 107.45,-42.83"/>
    </edge>
    <edge id=":v23_4" function="internal">
        <lane id=":v23_4_0" index="0" speed="13.89" length="9.03" shape="107.04,-46.00 109.43,-46.66 111.02,-47.93 111.81,-49.81 111.79,-52.29"/>
    </edge>
    <edge id=":v23_5" function="internal">
        <lane id=":v23_5_0" index="0" speed="13.89" length="14.14" shape="107.04,-46.00 110.94,-45.97 113.98,-44.78 116.16,-42.43 117.49,-38.90"/>
    </edge>
    <edge id=":v24_0" function="internal">
        <lane id=":v24_0_0" index="0" speed="13.89" length="11.77" shape="136.61,68.61 135.99,66.22 134.42,64.20 131.90,62.53 128.42,61.22"/>
    </edge>
    <edge id=":v24_1" function="internal">
        <lane id=":v24_1_0" index="0" speed="13.89" length="15.34" shape="136.61,68.61 136.28,64.82 135.75,60.99 135.07,57.18 134.30,53.45"/>
    </edge>
    <edge id=":v24_2" function="internal">
        <lane id=":v24_2_0" index="0" speed="13.89" length="15.84" shape="137.43,52.77 138.21,56.58 138.91,60.56 139.46,64.56 139.81,68.42"/>
    </edge>
    <edge id=":v24_3" function="internal">
        <lane id=":v24_3_0" index="0" speed="13.89" length="6.76" shape="137.43,52.77 137.82,57.71 137.08,59.36"/>
    </edge>
    <edge id=":v24_6" function="internal">
        <lane id=":v24_6_0" index="0" speed="13.89" length="9.83" shape="137.08,59.36 136.45,60.76 133.32,61.93 128.42,61.22"/>
    </edge>
    <edge id=":v24_4" function="internal">
        <lane id=":v24_4_0" index="0" speed="13.89" length="9.21" shape="129.30,58.14 132.02,58.54 133.76,57.89 134.52,56.19 134.30,53.45"/>
    </edge>
    <edge id=":v24_5" function="internal">
        <lane id=":v24_5_0" index="0" speed="13.89" length="15.73" shape="129.30,58.14 133.74,59.87 136.97,62.16 138.99,65.01 139.81,68.42"/>
    </edge>
    <edge id=":v25_0" function="internal">
        <lane id=":v25_0_0" index="0" speed="13.89" length="9.50" shape="140.86,86.98 140.63,89.69 139.58,91.42 137.69,92.17 134.98,91.93"/>
    </edge>
    <edge id=":v25_1" function="internal">
        <lane id=":v25_1_0" index="0" speed="13.89" length="3.17" shape="135.71,88.81 136.61,88.89 137.24,88.64 137.59,88.07 137.67,87.16"/>
    </edge>
    <edge id=":v26_0" function="internal">
        <lane id=":v26_0_0" index="0" speed="13.89" length="0.63" shape="116.42,87.59 116.24,87.55 116.11,87.53 115.98,87.54 115.80,87.57"/>
    </edge>
    <edge id=":v26_1" function="internal">
        <lane id=":v26_1_0" index="0" speed="13.89" length="1.89" shape="115.28,84.41 115.83,84.33 116.22,84.30 116.60,84.35 117.15,84.47"/>
    </edge>
    <edge id=":v3_0" function="internal">
        <lane id=":v3_0_0" index="0" speed="13.89" length="14.60" shape="0.12,5.84 -4.63,3.59 -8.43,2.67 -11.27,3.07 -13.17,4.79"/>
    </edge>
    <edge id=":v3_1" function="internal">
        <lane id=":v3_1_0" index="0" speed="13.89" length="21.79" shape="0.12,5.84 -5.31,2.00 -8.49,-2.23 -9.42,-6.83 -8.10,-11.80"/>
    </edge>
    <edge id=":v3_2" function="internal">
        <lane id=":v3_2_0" index="0" speed="13.89" length="21.50" shape="0.12,5.84 -5.73,1.79 -7.33,-1.47 -4.67,-3.94 2.26,-5.61"/>
    </edge>
    <edge id=":v3_3" function="internal">
        <lane id=":v3_3_0" index="0" speed="13.89" length="10.30" shape="2.70,-2.44 -0.61,-1.64 -1.89,-0.46 -1.13,1.11 1.68,3.05"/>
    </edge>
    <edge id=":v3_4" function="internal">
        <lane id=":v3_4_0" index="0" speed="13.89" length="17.94" shape="2.70,-2.44 -3.03,-1.32 -7.58,0.26 -10.96,2.30 -13.17,4.79"/>
    </edge>
    <edge id=":v3_5" function="internal">
        <lane id=":v3_5_0" index="0" speed="13.89" length="7.51" shape="2.70,-2.44 -4.10,-2.16 -4.76,-2.40"/>
    </edge>
    <edge id=":v3_12" function="internal">
        <lane id=":v3_12_0" index="0" speed="13.89" length="12.26" shape="-4.76,-2.40 -8.16,-3.63 -9.50,-6.85 -8.10,-11.80"/>
    </edge>
    <edge id=":v3_6" function="internal">
        <lane id=":v3_6_0" index="0" speed="13.89" length="11.92" shape="-5.21,-10.43 -5.86,-7.77 -4.83,-6.08 -2.13,-5.36 2.26,-5.61"/>
    </edge>
    <edge id=":v3_7" function="internal">
        <lane id=":v3_7_0" index="0" speed="13.89" length="16.89" shape="-5.21,-10.43 -6.13,-6.73 -5.29,-3.25 -2.69,0.01 1.68,3.05"/>
    </edge>
    <edge id=":v3_8" function="internal">
        <lane id=":v3_8_0" index="0" speed="13.89" length="17.19" shape="-5.21,-10.43 -7.00,-6.75 -9.03,-2.74 -11.15,1.24 -13.17,4.79"/>
    </edge>
    <edge id=":v3_9" function="internal">
        <lane id=":v3_9_0" index="0" speed="13.89" length="16.89" shape="-15.92,3.16 -13.92,-0.36 -11.86,-4.24 -9.87,-8.16 -8.10,-11.80"/>
    </edge>
    <edge id=":v3_10" function="internal">
        <lane id=":v3_10_0" index="0" speed="13.89" length="20.79" shape="-15.92,3.16 -13.27,0.07 -9.36,-2.42 -4.19,-4.31 2.26,-5.61"/>
    </edge>
    <edge id=":v3_11" function="internal">
        <lane id=":v3_11_0" index="0" speed="13.89" length="7.90" shape="-15.92,3.16 -13.16,0.36 -9.31,-0.60"/>
    </edge>
    <edge id=":v3_13" function="internal">
        <lane id=":v3_13_0" index="0" speed="13.89" length="11.66" shape="-9.31,-0.60 -4.36,0.30 1.68,3.05"/>
    </edge>
    <edge id=":v4_0" function="internal">
        <lane id=":v4_0_0" index="0" speed="13.89" length="10.09" shape="51.33,-6.47 48.64,-7.72 46.65,-8.27 44.57,-8.28 41.62,-7.91"/>
    </edge>
    <edge id=":v4_1" function="internal">
        <lane id=":v4_1_0" index="0" speed="13.89" length="4.70" shape="51.33,-6.47 48.84,-8.16 47.80,-9.49"/>
    </edge>
    <edge id=":v4_6" function="internal">
        <lane id=":v4_6_0" index="0" speed="13.89" length="7.20" shape="47.80,-9.49 47.11,-10.37 46.16,-13.07 45.98,-16.29"/>
    </edge>
    <edge id=":v4_2" function="internal">
        <lane id=":v4_2_0" index="0" speed="13.89" length="8.15" shape="49.18,-16.10 49.29,-13.86 49.93,-11.99 51.09,-10.48 52.76,-9.33"/>
    </edge>
    <edge id=":v4_3" function="internal">
        <lane id=":v4_3_0" index="0" speed="13.89" length="12.23" shape="49.18,-16.10 48.54,-12.89 47.07,-10.45 44.76,-8.79 41.62,-7.91"/>
    </edge>
    <edge id=":v4_4" function="internal">
        <lane id=":v4_4_0" index="0" speed="13.89" length="7.78" shape="41.17,-11.07 43.17,-11.64 44.64,-12.70 45.58,-14.25 45.98,-16.29"/>
    </edge>
    <edge id=":v4_5" function="internal">
        <lane id=":v4_5_0" index="0" speed="13.89" length="11.97" shape="41.17,-11.07 44.44,-11.41 47.15,-11.30 49.76,-10.65 52.76,-9.33"/>
    </edge>
    <edge id=":v5_0" function="internal">
        <lane id=":v5_0_0" index="0" speed="13.89" length="9.16" shape="93.44,20.37 91.94,18.12 90.29,17.23 88.47,17.71 86.49,19.54"/>
    </edge>
    <edge id=":v5_1" function="internal">
        <lane id=":v5_1_0" index="0" speed="13.89" length="15.32" shape="93.44,20.37 91.53,17.07 89.12,14.04 86.28,11.43 83.08,9.41"/>
    </edge>
    <edge id=":v5_2" function="internal">
        <lane id=":v5_2_0" index="0" speed="13.89" length="17.37" shape="84.52,6.55 87.94,8.80 91.28,11.91 94.19,15.45 96.32,18.98"/>
    </edge>
    <edge id=":v5_3" function="internal">
        <lane id=":v5_3_0" index="0" speed="13.89" length="7.77" shape="84.52,6.55 88.00,9.04 89.48,12.04 89.46,12.18"/>
    </edge>
    <edge id=":v5_6" function="internal">
        <lane id=":v5_6_0" index="0" speed="13.89" length="8.11" shape="89.46,12.18 88.98,15.54 86.49,19.54"/>
    </edge>
    <edge id=":v5_4" function="internal">
        <lane id=":v5_4_0" index="0" speed="13.89" length="9.84" shape="84.01,17.52 85.62,14.98 86.00,12.78 85.16,10.92 83.08,9.41"/>
    </edge>
    <edge id=":v5_5" function="internal">
        <lane id=":v5_5_0" index="0" speed="13.89" length="16.22" shape="84.01,17.52 87.52,14.27 90.74,13.43 93.67,15.00 96.32,18.98"/>
    </edge>
    <edge id=":v6_0" function="internal">
        <lane id=":v6_0_0" index="0" speed="13.89" length="11.37" shape="116.64,57.84 113.55,57.19 111.08,57.25 108.65,57.92 105.67,59.13"/>
    </edge>
    <edge id=":v6_1" function="internal">
        <lane id=":v6_1_0" index="0" speed="13.89" length="13.41" shape="116.64,57.84 113.84,56.65 111.33,54.75 109.12,52.16 107.21,48.86"/>
    </edge>
    <edge id=":v6_2" function="internal">
        <lane id=":v6_2_0" index="0" speed="13.89" length="10.72" shape="110.09,47.47 111.64,50.18 113.40,52.29 115.36,53.82 117.52,54.77"/>
    </edge>
    <edge id=":v6_3" function="internal">
        <lane id=":v6_3_0" index="0" speed="13.89" length="14.40" shape="110.09,47.47 111.29,51.26 110.96,54.47 109.08,57.09 105.67,59.13"/>
    </edge>
    <edge id=":v6_4" function="internal">
        <lane id=":v6_4_0" index="0" speed="13.89" length="9.04" shape="104.44,56.18 106.58,54.90 107.75,53.25 107.96,51.24 107.21,48.86"/>
    </edge>
    <edge id=":v6_5" function="internal">
        <lane id=":v6_5_0" index="0" speed="13.89" length="13.45" shape="104.44,56.18 107.75,54.95 110.91,54.23 114.10,54.14 117.52,54.77"/>
    </edge>
    <edge id=":v7_0" function="internal">
        <lane id=":v7_0_0" index="0" speed="13.89" length="13.11" shape="87.65,99.39 85.46,96.54 82.93,94.58 80.04,93.54 76.81,93.39"/>
    </edge>
    <edge id=":v7_1" function="internal">
        <lane id=":v7_1_0" index="0" speed="13.89" length="16.91" shape="87.65,99.39 85.68,95.86 83.77,91.89 82.09,87.81 80.83,83.97"/>
    </edge>
    <edge id=":v7_2" function="internal">
        <lane id=":v7_2_0" index="0" speed="13.89" length="15.93" shape="87.65,99.39 85.81,95.12 86.06,91.82 88.40,89.48 92.84,88.09"/>
    </edge>
    <edge id=":v7_3" function="internal">
        <lane id=":v7_3_0" index="0" speed="13.89" length="9.13" shape="93.36,91.25 90.82,92.04 89.47,93.39 89.33,95.28 90.39,97.73"/>
    </edge>
    <edge id=":v7_4" function="internal">
        <lane id=":v7_4_0" index="0" speed="13.89" length="16.69" shape="93.36,91.25 76.81,93.39"/>
    </edge>
    <edge id=":v7_5" function="internal">
        <lane id=":v7_5_0" index="0" speed="13.89" length="7.32" shape="93.36,91.25 88.81,91.41 86.18,90.57"/>
    </edge>
    <edge id=":v7_12" function="internal">
        <lane id=":v7_12_0" index="0" speed="13.89" length="8.84" shape="86.18,90.57 85.20,90.26 82.54,87.77 80.83,83.97"/>
    </edge>
    <edge id=":v7_6" function="internal">
        <lane id=":v7_6_0" index="0" speed="13.89" length="11.39" shape="83.91,83.11 85.11,85.73 87.00,87.44 89.58,88.23 92.84,88.09"/>
    </edge>
    <edge id=":v7_7" function="internal">
        <lane id=":v7_7_0" index="0" speed="13.89" length="16.03" shape="83.91,83.11 85.12,86.83 86.68,90.62 88.47,94.32 90.39,97.73"/>
    </edge>
    <edge id=":v7_8" function="internal">
        <lane id=":v7_8_0" index="0" speed="13.89" length="14.93" shape="83.91,83.11 84.45,87.28 83.44,90.38 80.90,92.42 76.81,93.39"/>
    </edge>
    <edge id=":v7_9" function="internal">
        <lane id=":v7_9_0" index="0" speed="13.89" length="9.06" shape="76.52,90.21 79.00,89.61 80.54,88.38 81.15,86.50 80.83,83.97"/>
    </edge>
    <edge id=":v7_10" function="internal">
        <lane id=":v7_10_0" index="0" speed="13.89" length="16.46" shape="76.52,90.21 92.84,88.09"/>
    </edge>
    <edge id=":v7_11" function="internal">
        <lane id=":v7_11_0" index="0" speed="13.89" length="6.15" shape="76.52,90.21 80.69,90.38 82.55,91.04"/>
    </edge>
    <edge id=":v7_13" function="internal">
        <lane id=":v7_13_0" index="0" speed="13.89" length="10.54" shape="82.55,91.04 84.39,91.69 87.62,94.14 90.39,97.73"/>
    </edge>
    <edge id=":v8_0" function="internal">
        <lane id=":v8_0_0" index="0" speed="13.89" length="6.91" shape="29.21,97.72 27.35,97.63 25.89,96.99 24.81,95.82 24.12,94.09"/>
    </edge>
    <edge id=":v8_1" function="internal">
        <lane id=":v8_1_0" index="0" speed="13.89" length="2.30" shape="27.22,93.32 27.45,93.89 27.81,94.29 28.30,94.50 28.92,94.53"/>
    </edge>

    <edge id="-edge1" from="v8" to="v7" priority="1">
        <lane id="-edge1_0" index="0" speed="13.89" length="47.79" shape="28.92,94.53 76.52,90.21"/>
    </edge>