<configuration>
	<input>
		<net-file value="small.net.xml"/>
		<route-files value="small.rou.xml"/>
		<additional-files value="small_charging_station_additional.xml" />
	</input>
	<output>
        <battery-output value="battery.out.xml"/>
        <battery-output.precision value="4"/>
        <device.battery.probability value="1"/>
        <summary-output value="small_summary.xml"/>
    </output>
	<processing>
		<time-to-teleport value="-1"/>
	</processing>
</configuration>