<!-- 
	with the convention that shadow charging station is always on edge starting with "-" 
	and the length of charging station to be 5
-->

<additional>

	<chargingStation power="50" chargeInTransit="0" chrgpower="200000" efficiency="1" id="chargingStation_gneE90_0_0" lane="gneE90_0" startPos="28.57" endPos="33.57">
		<param key="approx_loc" value="-11.30 -1.80"/>
	</chargingStation>

</additional>
