<?xml version="1.0" encoding="UTF-8"?>
<routes>
	<vType id="EV" accel="3.0" decel="6.0" length="5.0" minGap="2.5" maxSpeed="50.0" sigma="0.5" vClass="evehicle" emissionClass="Energy" guiShape="evehicle">
		<param key="has.battery.device" value="true"/>
        <param key="maximumBatteryCapacity" value="1200"/>
        <param key="maximumPower" value="1000"/>
        <param key="vehicleMass" value="10000"/>
        <param key="frontSurfaceArea" value="5"/>
        <param key="airDragCoefficient" value="0.6"/>
        <param key="internalMomentOfInertia" value="0.01"/>
        <param key="radialDragCoefficient" value="0.5"/>
        <param key="rollDragCoefficient" value="0.01"/>
        <param key="constantPowerIntake" value="100"/>
        <param key="propulsionEfficiency" value="0.9"/>
        <param key="recuperationEfficiency" value="0.9"/>
        <param key="stoppingTreshold" value="0.1"/>
	</vType>

	<vehicle id="v0" type="EV" depart="0" color="0,1,0">
		<param key="actualBatteryCapacity" value="1200"/>
      	<route edges="gneE73"/>
    </vehicle>

    <vehicle id="v1" type="EV" depart="0" color="0,1,0">
    	<param key="actualBatteryCapacity" value="1200"/>
     	<route edges="gneE89"/>
    </vehicle>

    <vehicle id="v2" type="EV" depart="0" color="0,1,0">
    	<param key="actualBatteryCapacity" value="1200"/>
     	<route edges="gneE79"/>
    </vehicle>
    
    <vehicle id="v3" type="EV" depart="0" color="0,1,0">
    	<param key="actualBatteryCapacity" value="1200"/>
     	<route edges="-gneE36"/>
    </vehicle>

    <vehicle id="v4" type="EV" depart="0" color="0,1,0">
    	<param key="actualBatteryCapacity" value="1200"/>
     	<route edges="gneE58"/>
    </vehicle>

    <vehicle id="v5" type="EV" depart="0" color="0,1,0">
    	<param key="actualBatteryCapacity" value="1200"/>
     	<route edges="-gneE60"/>
    </vehicle>

    <vehicle id="v6" type="EV" depart="0" color="0,1,0">
    	<param key="actualBatteryCapacity" value="1200"/>
     	<route edges="-gneE56"/>
    </vehicle>

    <vehicle id="v7" type="EV" depart="0" color="0,1,0">
    	<param key="actualBatteryCapacity" value="1200"/>
     	<route edges="-gneE31"/>
    </vehicle>

    <vehicle id="v8" type="EV" depart="0" color="0,1,0">
    	<param key="actualBatteryCapacity" value="1200"/>
     	<route edges="-gneE14"/>
    </vehicle>

    <vehicle id="v9" type="EV" depart="0" color="0,1,0">
    	<param key="actualBatteryCapacity" value="1200"/>
     	<route edges="gneE47"/>
    </vehicle>

    <trip id="0" depart="0.00" from="gneE60" to="-gneE1"/>
    <trip id="1" depart="2.00" from="-gneE55" to="-gneE47"/>
    <trip id="2" depart="4.00" from="gneE72" to="gneE64"/>
    <trip id="3" depart="6.00" from="gneE87" to="-gneE22"/>
    <trip id="4" depart="8.00" from="edge1" to="-gneE14"/>
    <trip id="5" depart="10.00" from="-gneE47" to="gneE22"/>
    <trip id="6" depart="12.00" from="-gneE1" to="-gneE38"/>
    <trip id="7" depart="14.00" from="gneE61" to="gneE30"/>
    <trip id="8" depart="16.00" from="-gneE47" to="gneE50"/>
    <trip id="9" depart="18.00" from="gneE78" to="-edge1"/>
    <trip id="10" depart="20.00" from="gneE78" to="gneE65"/>
    <trip id="11" depart="22.00" from="-gneE64" to="-gneE31"/>
    <trip id="12" depart="24.00" from="gneE91" to="-gneE63"/>
    <trip id="13" depart="26.00" from="-gneE22" to="-gneE25"/>
    <trip id="14" depart="28.00" from="gneE82" to="gneE54"/>
    <trip id="15" depart="30.00" from="gneE78" to="gneE69"/>
    <trip id="16" depart="32.00" from="gneE30" to="gneE94"/>
    <trip id="17" depart="34.00" from="-gneE67" to="gneE34"/>
    <trip id="18" depart="36.00" from="gneE81" to="gneE57"/>
    <trip id="19" depart="38.00" from="gneE84" to="gneE47"/>
    <trip id="20" depart="40.00" from="gneE67" to="-gneE15"/>
    <trip id="21" depart="42.00" from="-gneE47" to="-gneE56"/>
    <trip id="22" depart="44.00" from="-gneE21" to="-gneE47"/>
    <trip id="23" depart="46.00" from="-gneE25" to="-gneE55"/>
    <trip id="24" depart="48.00" from="gneE60" to="-gneE65"/>
    <trip id="25" depart="50.00" from="-gneE66" to="-gneE46"/>
    <trip id="26" depart="52.00" from="-gneE54" to="gneE90"/>
    <trip id="27" depart="54.00" from="gneE60" to="gneE54"/>
    <trip id="28" depart="56.00" from="-gneE36" to="gneE69"/>
    <trip id="29" depart="58.00" from="-gneE36" to="-gneE66"/>
    <trip id="30" depart="60.00" from="gneE95" to="gneE58"/>
    <trip id="31" depart="62.00" from="gneE36" to="gneE64"/>
    <trip id="32" depart="64.00" from="gneE82" to="gneE75"/>
    <trip id="33" depart="66.00" from="-gneE47" to="-gneE14"/>
    <trip id="34" depart="68.00" from="-gneE61" to="-gneE54"/>
    <trip id="35" depart="70.00" from="-gneE46" to="gneE90"/>
    <trip id="36" depart="72.00" from="gneE85" to="-gneE60"/>
    <trip id="37" depart="74.00" from="gneE61" to="-gneE67"/>
    <trip id="38" depart="76.00" from="gneE88" to="gneE12"/>
    <trip id="39" depart="78.00" from="-gneE54" to="-gneE50"/>
    <trip id="40" depart="80.00" from="gneE36" to="-gneE54"/>
    <trip id="41" depart="82.00" from="gneE50" to="gneE87"/>
    <trip id="42" depart="84.00" from="-gneE68" to="-gneE47"/>
    <trip id="43" depart="86.00" from="gneE95" to="gneE25"/>
    <trip id="44" depart="88.00" from="-gneE22" to="-gneE15"/>
    <trip id="45" depart="90.00" from="-gneE27" to="gneE57"/>
    <trip id="46" depart="92.00" from="gneE76" to="-gneE70"/>
    <trip id="47" depart="94.00" from="-gneE20" to="-gneE66"/>
    <trip id="48" depart="96.00" from="gneE95" to="gneE27"/>
    <trip id="49" depart="98.00" from="gneE92" to="gneE84"/>
    <trip id="50" depart="100.00" from="-edge1" to="gneE67"/>
    <trip id="51" depart="102.00" from="gneE65" to="gneE30"/>
    <trip id="52" depart="104.00" from="-gneE54" to="gneE58"/>
    <trip id="53" depart="106.00" from="-gneE27" to="edge1"/>
    <trip id="54" depart="108.00" from="gneE12" to="gneE91"/>
    <trip id="55" depart="110.00" from="gneE85" to="-gneE54"/>
    <trip id="56" depart="112.00" from="gneE25" to="-gneE37"/>
    <trip id="57" depart="114.00" from="gneE88" to="gneE85"/>
    <trip id="58" depart="116.00" from="-gneE60" to="gneE58"/>
    <trip id="59" depart="118.00" from="gneE57" to="-gneE31"/>
    <trip id="60" depart="120.00" from="gneE74" to="gneE30"/>
    <trip id="61" depart="122.00" from="gneE75" to="gneE27"/>
    <trip id="62" depart="124.00" from="-edge1" to="-gneE61"/>
    <trip id="63" depart="126.00" from="-gneE1" to="gneE89"/>
    <trip id="64" depart="128.00" from="gneE86" to="gneE81"/>
    <trip id="65" depart="130.00" from="-gneE60" to="-gneE20"/>
    <trip id="66" depart="132.00" from="gneE85" to="gneE91"/>
    <trip id="67" depart="134.00" from="-gneE22" to="gneE20"/>
    <trip id="68" depart="136.00" from="-gneE21" to="gneE74"/>
    <trip id="69" depart="138.00" from="gneE74" to="-gneE28"/>
    <trip id="70" depart="140.00" from="gneE20" to="gneE34"/>
    <trip id="71" depart="142.00" from="-gneE54" to="gneE85"/>
    <trip id="72" depart="144.00" from="edge1" to="-gneE46"/>
    <trip id="73" depart="146.00" from="gneE30" to="gneE69"/>
    <trip id="74" depart="148.00" from="-gneE38" to="-gneE60"/>
    <trip id="75" depart="150.00" from="gneE95" to="gneE60"/>
    <trip id="76" depart="152.00" from="gneE1" to="gneE25"/>
    <trip id="77" depart="154.00" from="-gneE27" to="-gneE47"/>
    <trip id="78" depart="156.00" from="-gneE64" to="gneE47"/>
    <trip id="79" depart="158.00" from="-gneE48" to="-gneE47"/>
    <trip id="80" depart="160.00" from="-gneE21" to="gneE58"/>
    <trip id="81" depart="162.00" from="-gneE47" to="gneE88"/>
    <trip id="82" depart="164.00" from="gneE84" to="-gneE21"/>
    <trip id="83" depart="166.00" from="-gneE48" to="gneE61"/>
    <trip id="84" depart="168.00" from="-gneE46" to="-gneE28"/>
    <trip id="85" depart="170.00" from="gneE90" to="gneE36"/>
    <trip id="86" depart="172.00" from="gneE15" to="gneE76"/>
    <trip id="87" depart="174.00" from="gneE78" to="-gneE37"/>
    <trip id="88" depart="176.00" from="-gneE25" to="edge1"/>
    <trip id="89" depart="178.00" from="edge1" to="gneE15"/>
    <trip id="90" depart="180.00" from="gneE69" to="gneE64"/>
    <trip id="91" depart="182.00" from="gneE94" to="-gneE25"/>
    <trip id="92" depart="184.00" from="-gneE68" to="-gneE63"/>
    <trip id="93" depart="186.00" from="gneE84" to="-gneE50"/>
    <trip id="94" depart="188.00" from="-gneE38" to="gneE1"/>
    <trip id="95" depart="190.00" from="edge1" to="-gneE55"/>
    <trip id="96" depart="192.00" from="-gneE50" to="gneE89"/>
    <trip id="97" depart="194.00" from="gneE1" to="gneE84"/>
    <trip id="98" depart="196.00" from="gneE34" to="-gneE15"/>
    <trip id="99" depart="198.00" from="gneE95" to="gneE82"/>
    <trip id="100" depart="200.00" from="gneE92" to="gneE89"/>
    <trip id="101" depart="202.00" from="gneE82" to="-gneE36"/>
    <trip id="102" depart="204.00" from="gneE20" to="-gneE46"/>
    <trip id="103" depart="206.00" from="-gneE68" to="-gneE20"/>
    <trip id="104" depart="208.00" from="-gneE67" to="gneE94"/>
    <trip id="105" depart="210.00" from="-gneE54" to="gneE76"/>
    <trip id="106" depart="212.00" from="gneE12" to="-gneE70"/>
    <trip id="107" depart="214.00" from="gneE91" to="gneE95"/>
    <trip id="108" depart="216.00" from="gneE36" to="gneE67"/>
    <trip id="109" depart="218.00" from="-gneE31" to="-gneE56"/>
    <trip id="110" depart="220.00" from="gneE92" to="gneE47"/>
    <trip id="111" depart="222.00" from="gneE34" to="gneE72"/>
    <trip id="112" depart="224.00" from="-gneE20" to="gneE47"/>
    <trip id="113" depart="226.00" from="gneE25" to="gneE84"/>
    <trip id="114" depart="228.00" from="-gneE31" to="gneE92"/>
    <trip id="115" depart="230.00" from="-gneE21" to="-gneE37"/>
    <trip id="116" depart="232.00" from="gneE54" to="gneE64"/>
    <trip id="117" depart="234.00" from="-gneE48" to="-gneE27"/>
    <trip id="118" depart="236.00" from="gneE86" to="-gneE48"/>
    <trip id="119" depart="238.00" from="gneE50" to="gneE57"/>
    <trip id="120" depart="240.00" from="edge1" to="gneE47"/>
    <trip id="121" depart="242.00" from="gneE27" to="gneE90"/>
    <trip id="122" depart="244.00" from="-gneE46" to="gneE67"/>
    <trip id="123" depart="246.00" from="-gneE48" to="-gneE67"/>
    <trip id="124" depart="248.00" from="gneE64" to="-gneE56"/>
    <trip id="125" depart="250.00" from="-gneE61" to="gneE72"/>
    <trip id="126" depart="252.00" from="-gneE21" to="gneE12"/>
    <trip id="127" depart="254.00" from="gneE95" to="gneE95"/>
    <trip id="128" depart="256.00" from="-gneE21" to="-gneE46"/>
    <trip id="129" depart="258.00" from="-gneE54" to="gneE90"/>
    <trip id="130" depart="260.00" from="gneE86" to="gneE86"/>
    <trip id="131" depart="262.00" from="-gneE66" to="-gneE31"/>
    <trip id="132" depart="264.00" from="gneE81" to="gneE66"/>
    <trip id="133" depart="266.00" from="gneE57" to="gneE95"/>
    <trip id="134" depart="268.00" from="gneE61" to="-edge1"/>
    <trip id="135" depart="270.00" from="gneE79" to="-gneE56"/>
    <trip id="136" depart="272.00" from="gneE64" to="gneE90"/>
    <trip id="137" depart="274.00" from="-gneE28" to="-gneE27"/>
    <trip id="138" depart="276.00" from="-gneE25" to="gneE34"/>
    <trip id="139" depart="278.00" from="-gneE55" to="gneE54"/>
    <trip id="140" depart="280.00" from="gneE69" to="-gneE38"/>
    <trip id="141" depart="282.00" from="gneE58" to="-gneE54"/>
    <trip id="142" depart="284.00" from="gneE22" to="gneE88"/>
    <trip id="143" depart="286.00" from="gneE82" to="-gneE22"/>
    <trip id="144" depart="288.00" from="edge1" to="-gneE55"/>
    <trip id="145" depart="290.00" from="-edge1" to="gneE75"/>
    <trip id="146" depart="292.00" from="gneE60" to="-gneE54"/>
    <trip id="147" depart="294.00" from="gneE72" to="gneE34"/>
    <trip id="148" depart="296.00" from="edge1" to="-edge1"/>
    <trip id="149" depart="298.00" from="-gneE21" to="gneE86"/>
    <trip id="150" depart="300.00" from="gneE87" to="gneE30"/>
    <trip id="151" depart="302.00" from="gneE81" to="gneE47"/>
    <trip id="152" depart="304.00" from="-gneE30" to="-gneE28"/>
    <trip id="153" depart="306.00" from="-gneE60" to="gneE87"/>
    <trip id="154" depart="308.00" from="gneE76" to="gneE84"/>
    <trip id="155" depart="310.00" from="gneE87" to="-gneE46"/>
    <trip id="156" depart="312.00" from="-gneE50" to="-gneE25"/>
    <trip id="157" depart="314.00" from="gneE75" to="gneE86"/>
    <trip id="158" depart="316.00" from="-gneE70" to="gneE57"/>
    <trip id="159" depart="318.00" from="-gneE31" to="gneE89"/>
    <trip id="160" depart="320.00" from="gneE84" to="gneE94"/>
    <trip id="161" depart="322.00" from="gneE78" to="gneE86"/>
    <trip id="162" depart="324.00" from="-gneE1" to="gneE69"/>
    <trip id="163" depart="326.00" from="-gneE63" to="gneE89"/>
    <trip id="164" depart="328.00" from="gneE78" to="gneE85"/>
    <trip id="165" depart="330.00" from="gneE78" to="-gneE54"/>
    <trip id="166" depart="332.00" from="gneE76" to="-gneE25"/>
    <trip id="167" depart="334.00" from="gneE85" to="gneE84"/>
    <trip id="168" depart="336.00" from="-gneE47" to="gneE79"/>
    <trip id="169" depart="338.00" from="gneE15" to="-gneE60"/>
    <trip id="170" depart="340.00" from="gneE76" to="-gneE47"/>
    <trip id="171" depart="342.00" from="-gneE1" to="-gneE38"/>
    <trip id="172" depart="344.00" from="-gneE63" to="gneE85"/>
    <trip id="173" depart="346.00" from="gneE92" to="-gneE55"/>
    <trip id="174" depart="348.00" from="gneE60" to="-gneE68"/>
    <trip id="175" depart="350.00" from="gneE94" to="gneE30"/>
    <trip id="176" depart="352.00" from="gneE90" to="-gneE27"/>
    <trip id="177" depart="354.00" from="gneE92" to="-gneE37"/>
    <trip id="178" depart="356.00" from="gneE92" to="-gneE54"/>
    <trip id="179" depart="358.00" from="-gneE27" to="edge1"/>
    <trip id="180" depart="360.00" from="gneE69" to="-gneE60"/>
    <trip id="181" depart="362.00" from="gneE54" to="gneE25"/>
    <trip id="182" depart="364.00" from="-gneE67" to="gneE47"/>
    <trip id="183" depart="366.00" from="-gneE50" to="gneE66"/>
    <trip id="184" depart="368.00" from="-edge1" to="gneE89"/>
    <trip id="185" depart="370.00" from="gneE30" to="gneE67"/>
    <trip id="186" depart="372.00" from="gneE72" to="gneE61"/>
    <trip id="187" depart="374.00" from="-gneE65" to="-gneE21"/>
    <trip id="188" depart="376.00" from="gneE64" to="-gneE63"/>
    <trip id="189" depart="378.00" from="-gneE61" to="gneE82"/>
    <trip id="190" depart="380.00" from="gneE69" to="-gneE56"/>
    <trip id="191" depart="382.00" from="-gneE60" to="-gneE68"/>
    <trip id="192" depart="384.00" from="-gneE68" to="-gneE56"/>
    <trip id="193" depart="386.00" from="-gneE28" to="-gneE70"/>
    <trip id="194" depart="388.00" from="gneE90" to="gneE64"/>
    <trip id="195" depart="390.00" from="gneE87" to="gneE54"/>
    <trip id="196" depart="392.00" from="-gneE60" to="gneE30"/>
    <trip id="197" depart="394.00" from="-edge1" to="-gneE55"/>
    <trip id="198" depart="396.00" from="edge1" to="gneE47"/>
    <trip id="199" depart="398.00" from="gneE61" to="gneE12"/>
    <trip id="200" depart="400.00" from="gneE1" to="-gneE46"/>
    <trip id="201" depart="402.00" from="gneE20" to="gneE87"/>
    <trip id="202" depart="404.00" from="gneE76" to="-gneE36"/>
    <trip id="203" depart="406.00" from="-gneE22" to="gneE25"/>
    <trip id="204" depart="408.00" from="gneE58" to="-gneE63"/>
    <trip id="205" depart="410.00" from="gneE79" to="gneE72"/>
    <trip id="206" depart="412.00" from="gneE64" to="-gneE47"/>
    <trip id="207" depart="414.00" from="-gneE38" to="-gneE1"/>
    <trip id="208" depart="416.00" from="-gneE50" to="gneE15"/>
    <trip id="209" depart="418.00" from="gneE82" to="-gneE21"/>
    <trip id="210" depart="420.00" from="-gneE70" to="gneE57"/>
    <trip id="211" depart="422.00" from="-gneE38" to="gneE65"/>
    <trip id="212" depart="424.00" from="gneE22" to="-gneE48"/>
    <trip id="213" depart="426.00" from="gneE61" to="-edge1"/>
    <trip id="214" depart="428.00" from="gneE73" to="gneE75"/>
    <trip id="215" depart="430.00" from="-gneE25" to="edge1"/>
    <trip id="216" depart="432.00" from="-gneE37" to="gneE91"/>
    <trip id="217" depart="434.00" from="gneE27" to="-gneE15"/>
    <trip id="218" depart="436.00" from="-gneE50" to="gneE82"/>
    <trip id="219" depart="438.00" from="gneE12" to="gneE78"/>
    <trip id="220" depart="440.00" from="gneE64" to="gneE95"/>
    <trip id="221" depart="442.00" from="gneE54" to="gneE91"/>
    <trip id="222" depart="444.00" from="gneE86" to="gneE54"/>
    <trip id="223" depart="446.00" from="gneE69" to="gneE22"/>
    <trip id="224" depart="448.00" from="gneE81" to="gneE30"/>
    <trip id="225" depart="450.00" from="gneE87" to="gneE72"/>
    <trip id="226" depart="452.00" from="gneE20" to="-gneE50"/>
    <trip id="227" depart="454.00" from="-gneE50" to="gneE58"/>
    <trip id="228" depart="456.00" from="gneE74" to="gneE27"/>
    <trip id="229" depart="458.00" from="gneE58" to="-gneE55"/>
    <trip id="230" depart="460.00" from="-gneE21" to="-gneE55"/>
    <trip id="231" depart="462.00" from="-gneE55" to="-gneE61"/>
    <trip id="232" depart="464.00" from="gneE30" to="-gneE30"/>
    <trip id="233" depart="466.00" from="-gneE48" to="gneE65"/>
    <trip id="234" depart="468.00" from="gneE67" to="-gneE20"/>
    <trip id="235" depart="470.00" from="-gneE70" to="gneE30"/>
    <trip id="236" depart="472.00" from="-gneE70" to="-gneE46"/>
    <trip id="237" depart="474.00" from="edge1" to="gneE88"/>
    <trip id="238" depart="476.00" from="gneE50" to="gneE65"/>
    <trip id="239" depart="478.00" from="gneE84" to="gneE74"/>
    <trip id="240" depart="480.00" from="-gneE67" to="-edge1"/>
    <trip id="241" depart="482.00" from="-gneE65" to="gneE74"/>
    <trip id="242" depart="484.00" from="gneE84" to="gneE91"/>
    <trip id="243" depart="486.00" from="edge1" to="gneE72"/>
    <trip id="244" depart="488.00" from="gneE34" to="gneE54"/>
    <trip id="245" depart="490.00" from="-gneE47" to="-gneE47"/>
    <trip id="246" depart="492.00" from="gneE1" to="-gneE14"/>
    <trip id="247" depart="494.00" from="-gneE63" to="gneE64"/>
    <trip id="248" depart="496.00" from="-gneE68" to="-gneE36"/>
    <trip id="249" depart="498.00" from="gneE15" to="-gneE28"/>
    <trip id="250" depart="500.00" from="gneE58" to="-gneE1"/>
    <trip id="251" depart="502.00" from="-gneE68" to="gneE36"/>
    <trip id="252" depart="504.00" from="-gneE14" to="gneE58"/>
    <trip id="253" depart="506.00" from="-gneE30" to="gneE12"/>
    <trip id="254" depart="508.00" from="-gneE15" to="-gneE66"/>
    <trip id="255" depart="510.00" from="-gneE46" to="-gneE61"/>
    <trip id="256" depart="512.00" from="gneE74" to="-gneE66"/>
    <trip id="257" depart="514.00" from="gneE73" to="gneE81"/>
    <trip id="258" depart="516.00" from="-gneE50" to="-gneE21"/>
    <trip id="259" depart="518.00" from="-gneE1" to="gneE30"/>
    <trip id="260" depart="520.00" from="gneE95" to="-gneE64"/>
    <trip id="261" depart="522.00" from="gneE61" to="gneE76"/>
    <trip id="262" depart="524.00" from="gneE61" to="gneE74"/>
    <trip id="263" depart="526.00" from="gneE91" to="-gneE38"/>
    <trip id="264" depart="528.00" from="-gneE1" to="-gneE31"/>
    <trip id="265" depart="530.00" from="-gneE28" to="gneE61"/>
    <trip id="266" depart="532.00" from="gneE36" to="-gneE46"/>
    <trip id="267" depart="534.00" from="gneE66" to="gneE74"/>
    <trip id="268" depart="536.00" from="-gneE36" to="gneE54"/>
    <trip id="269" depart="538.00" from="gneE73" to="-gneE27"/>
    <trip id="270" depart="540.00" from="gneE79" to="gneE92"/>
    <trip id="271" depart="542.00" from="-gneE25" to="-gneE1"/>
    <trip id="272" depart="544.00" from="-gneE61" to="gneE64"/>
    <trip id="273" depart="546.00" from="gneE91" to="-gneE67"/>
    <trip id="274" depart="548.00" from="gneE67" to="-gneE21"/>
    <trip id="275" depart="550.00" from="gneE66" to="gneE57"/>
    <trip id="276" depart="552.00" from="-gneE25" to="gneE75"/>
    <trip id="277" depart="554.00" from="gneE82" to="gneE50"/>
    <trip id="278" depart="556.00" from="-gneE27" to="gneE94"/>
    <trip id="279" depart="558.00" from="gneE75" to="-gneE64"/>
    <trip id="280" depart="560.00" from="edge1" to="-gneE66"/>
    <trip id="281" depart="562.00" from="gneE25" to="-gneE63"/>
    <trip id="282" depart="564.00" from="gneE82" to="gneE81"/>
    <trip id="283" depart="566.00" from="-gneE25" to="gneE92"/>
    <trip id="284" depart="568.00" from="gneE60" to="gneE81"/>
    <trip id="285" depart="570.00" from="gneE67" to="edge1"/>
    <trip id="286" depart="572.00" from="gneE72" to="gneE92"/>
    <trip id="287" depart="574.00" from="-gneE54" to="gneE78"/>
    <trip id="288" depart="576.00" from="gneE30" to="gneE20"/>
    <trip id="289" depart="578.00" from="gneE1" to="gneE69"/>
    <trip id="290" depart="580.00" from="-gneE54" to="gneE84"/>
    <trip id="291" depart="582.00" from="gneE81" to="-gneE22"/>
    <trip id="292" depart="584.00" from="gneE86" to="-gneE48"/>
    <trip id="293" depart="586.00" from="gneE15" to="gneE54"/>
    <trip id="294" depart="588.00" from="-gneE67" to="-gneE14"/>
    <trip id="295" depart="590.00" from="gneE82" to="-gneE37"/>
    <trip id="296" depart="592.00" from="-gneE46" to="gneE78"/>
    <trip id="297" depart="594.00" from="-gneE64" to="gneE86"/>
    <trip id="298" depart="596.00" from="gneE66" to="-gneE55"/>
    <trip id="299" depart="598.00" from="-edge1" to="gneE91"/>
    <trip id="300" depart="600.00" from="-gneE22" to="gneE67"/>
    <trip id="301" depart="602.00" from="gneE22" to="gneE74"/>
    <trip id="302" depart="604.00" from="gneE66" to="gneE60"/>
    <trip id="303" depart="606.00" from="gneE22" to="gneE76"/>
    <trip id="304" depart="608.00" from="-gneE22" to="-gneE47"/>
    <trip id="305" depart="610.00" from="gneE66" to="-gneE60"/>
    <trip id="306" depart="612.00" from="gneE50" to="gneE15"/>
    <trip id="307" depart="614.00" from="gneE30" to="edge1"/>
    <trip id="308" depart="616.00" from="gneE73" to="-gneE63"/>
    <trip id="309" depart="618.00" from="gneE67" to="-gneE54"/>
    <trip id="310" depart="620.00" from="-gneE50" to="-gneE27"/>
    <trip id="311" depart="622.00" from="-gneE38" to="-gneE27"/>
    <trip id="312" depart="624.00" from="gneE30" to="gneE74"/>
    <trip id="313" depart="626.00" from="-gneE37" to="-gneE46"/>
    <trip id="314" depart="628.00" from="gneE20" to="gneE67"/>
    <trip id="315" depart="630.00" from="gneE94" to="gneE27"/>
    <trip id="316" depart="632.00" from="-gneE55" to="-gneE25"/>
    <trip id="317" depart="634.00" from="-gneE38" to="-gneE47"/>
    <trip id="318" depart="636.00" from="-gneE37" to="-gneE1"/>
    <trip id="319" depart="638.00" from="gneE30" to="-gneE55"/>
    <trip id="320" depart="640.00" from="gneE94" to="gneE34"/>
    <trip id="321" depart="642.00" from="gneE66" to="-gneE28"/>
    <trip id="322" depart="644.00" from="gneE85" to="gneE20"/>
    <trip id="323" depart="646.00" from="gneE85" to="gneE36"/>
    <trip id="324" depart="648.00" from="gneE15" to="gneE1"/>
    <trip id="325" depart="650.00" from="-gneE37" to="-gneE15"/>
    <trip id="326" depart="652.00" from="gneE90" to="gneE15"/>
    <trip id="327" depart="654.00" from="gneE79" to="-gneE68"/>
    <trip id="328" depart="656.00" from="-gneE21" to="gneE57"/>
    <trip id="329" depart="658.00" from="-gneE15" to="-gneE30"/>
    <trip id="330" depart="660.00" from="gneE36" to="-gneE60"/>
    <trip id="331" depart="662.00" from="gneE95" to="-gneE27"/>
    <trip id="332" depart="664.00" from="gneE74" to="gneE54"/>
    <trip id="333" depart="666.00" from="gneE76" to="-gneE47"/>
    <trip id="334" depart="668.00" from="gneE27" to="gneE1"/>
    <trip id="335" depart="670.00" from="gneE1" to="gneE84"/>
    <trip id="336" depart="672.00" from="gneE95" to="-gneE60"/>
    <trip id="337" depart="674.00" from="gneE57" to="gneE54"/>
    <trip id="338" depart="676.00" from="gneE72" to="gneE91"/>
    <trip id="339" depart="678.00" from="-gneE46" to="-gneE46"/>
    <trip id="340" depart="680.00" from="gneE61" to="-gneE31"/>
    <trip id="341" depart="682.00" from="-gneE36" to="-gneE21"/>
    <trip id="342" depart="684.00" from="-edge1" to="gneE1"/>
    <trip id="343" depart="686.00" from="gneE50" to="-gneE56"/>
    <trip id="344" depart="688.00" from="-gneE48" to="gneE66"/>
    <trip id="345" depart="690.00" from="gneE67" to="gneE12"/>
    <trip id="346" depart="692.00" from="gneE65" to="gneE89"/>
    <trip id="347" depart="694.00" from="gneE76" to="gneE57"/>
    <trip id="348" depart="696.00" from="gneE61" to="gneE90"/>
    <trip id="349" depart="698.00" from="edge1" to="gneE30"/>
    <trip id="350" depart="700.00" from="gneE60" to="gneE88"/>
    <trip id="351" depart="702.00" from="gneE81" to="-gneE21"/>
    <trip id="352" depart="704.00" from="-gneE36" to="-gneE60"/>
    <trip id="353" depart="706.00" from="gneE73" to="gneE36"/>
    <trip id="354" depart="708.00" from="-gneE56" to="-gneE28"/>
    <trip id="355" depart="710.00" from="gneE65" to="gneE66"/>
    <trip id="356" depart="712.00" from="gneE90" to="gneE22"/>
    <trip id="357" depart="714.00" from="gneE22" to="-gneE21"/>
    <trip id="358" depart="716.00" from="-gneE14" to="edge1"/>
    <trip id="359" depart="718.00" from="-gneE61" to="-gneE50"/>
    <trip id="360" depart="720.00" from="-gneE22" to="gneE92"/>
    <trip id="361" depart="722.00" from="gneE81" to="gneE36"/>
    <trip id="362" depart="724.00" from="gneE91" to="gneE95"/>
    <trip id="363" depart="726.00" from="gneE64" to="-gneE54"/>
    <trip id="364" depart="728.00" from="-gneE14" to="gneE74"/>
    <trip id="365" depart="730.00" from="gneE15" to="gneE60"/>
    <trip id="366" depart="732.00" from="gneE88" to="-gneE37"/>
    <trip id="367" depart="734.00" from="gneE50" to="gneE58"/>
    <trip id="368" depart="736.00" from="gneE22" to="-gneE22"/>
    <trip id="369" depart="738.00" from="-gneE64" to="-gneE63"/>
    <trip id="370" depart="740.00" from="gneE64" to="gneE84"/>
    <trip id="371" depart="742.00" from="-gneE63" to="gneE65"/>
    <trip id="372" depart="744.00" from="-gneE56" to="gneE90"/>
    <trip id="373" depart="746.00" from="gneE79" to="gneE34"/>
    <trip id="374" depart="748.00" from="gneE12" to="-gneE60"/>
    <trip id="375" depart="750.00" from="-gneE61" to="gneE92"/>
    <trip id="376" depart="752.00" from="-gneE68" to="gneE25"/>
    <trip id="377" depart="754.00" from="gneE95" to="gneE61"/>
    <trip id="378" depart="756.00" from="gneE34" to="-gneE70"/>
    <trip id="379" depart="758.00" from="-gneE37" to="-gneE65"/>
    <trip id="380" depart="760.00" from="gneE73" to="gneE57"/>
    <trip id="381" depart="762.00" from="gneE74" to="-gneE38"/>
    <trip id="382" depart="764.00" from="gneE34" to="gneE89"/>
    <trip id="383" depart="766.00" from="gneE1" to="gneE65"/>
    <trip id="384" depart="768.00" from="-gneE27" to="gneE94"/>
    <trip id="385" depart="770.00" from="gneE57" to="-gneE48"/>
    <trip id="386" depart="772.00" from="-gneE31" to="gneE34"/>
    <trip id="387" depart="774.00" from="gneE34" to="-gneE22"/>
    <trip id="388" depart="776.00" from="gneE95" to="gneE88"/>
    <trip id="389" depart="778.00" from="gneE15" to="-gneE27"/>
    <trip id="390" depart="780.00" from="gneE81" to="gneE22"/>
    <trip id="391" depart="782.00" from="gneE69" to="gneE25"/>
    <trip id="392" depart="784.00" from="-gneE55" to="gneE81"/>
    <trip id="393" depart="786.00" from="gneE94" to="-gneE48"/>
    <trip id="394" depart="788.00" from="gneE34" to="-gneE67"/>
    <trip id="395" depart="790.00" from="gneE89" to="gneE25"/>
    <trip id="396" depart="792.00" from="gneE86" to="gneE85"/>
    <trip id="397" depart="794.00" from="-gneE55" to="gneE76"/>
    <trip id="398" depart="796.00" from="-gneE70" to="gneE90"/>
    <trip id="399" depart="798.00" from="gneE25" to="gneE79"/>
    <trip id="400" depart="800.00" from="-gneE55" to="-gneE56"/>
    <trip id="401" depart="802.00" from="gneE50" to="gneE95"/>
    <trip id="402" depart="804.00" from="gneE22" to="-gneE30"/>
    <trip id="403" depart="806.00" from="gneE30" to="-gneE64"/>
    <trip id="404" depart="808.00" from="gneE34" to="gneE30"/>
    <trip id="405" depart="810.00" from="gneE12" to="-gneE61"/>
    <trip id="406" depart="812.00" from="-gneE37" to="gneE65"/>
    <trip id="407" depart="814.00" from="gneE47" to="-gneE48"/>
    <trip id="408" depart="816.00" from="gneE75" to="-gneE15"/>
    <trip id="409" depart="818.00" from="gneE73" to="gneE66"/>
    <trip id="410" depart="820.00" from="gneE79" to="-gneE67"/>
    <trip id="411" depart="822.00" from="gneE64" to="gneE79"/>
    <trip id="412" depart="824.00" from="gneE94" to="gneE22"/>
    <trip id="413" depart="826.00" from="-gneE14" to="gneE22"/>
    <trip id="414" depart="828.00" from="gneE50" to="gneE85"/>
    <trip id="415" depart="830.00" from="gneE85" to="gneE1"/>
    <trip id="416" depart="832.00" from="gneE27" to="gneE12"/>
    <trip id="417" depart="834.00" from="gneE69" to="-gneE68"/>
    <trip id="418" depart="836.00" from="gneE61" to="-gneE31"/>
    <trip id="419" depart="838.00" from="gneE15" to="gneE92"/>
    <trip id="420" depart="840.00" from="-gneE64" to="gneE65"/>
    <trip id="421" depart="842.00" from="gneE61" to="gneE84"/>
    <trip id="422" depart="844.00" from="gneE84" to="gneE84"/>
    <trip id="423" depart="846.00" from="-gneE67" to="-gneE61"/>
    <trip id="424" depart="848.00" from="gneE69" to="gneE74"/>
    <trip id="425" depart="850.00" from="gneE85" to="-gneE14"/>
    <trip id="426" depart="852.00" from="-gneE21" to="gneE58"/>
    <trip id="427" depart="854.00" from="gneE89" to="gneE95"/>
    <trip id="428" depart="856.00" from="gneE73" to="edge1"/>
    <trip id="429" depart="858.00" from="-gneE25" to="gneE58"/>
    <trip id="430" depart="860.00" from="gneE85" to="gneE1"/>
    <trip id="431" depart="862.00" from="gneE66" to="gneE87"/>
    <trip id="432" depart="864.00" from="-gneE15" to="gneE78"/>
    <trip id="433" depart="866.00" from="-gneE56" to="-gneE66"/>