<?xml version="1.0" encoding="UTF-8"?>

<net version="1.9" xmlns:xsi="http://www.w3.org/2001/XMLSchema-instance" xsi:noNamespaceSchemaLocation="http://sumo.dlr.de/xsd/net_file.xsd">

    <location netOffset="0.00,0.00" convBoundary="-229.74,-92.36,139.51,122.19" origBoundary="-10000000000.00,-10000000000.00,10000000000.00,10000000000.00" projParameter="!"/>

    <edge id=":v1_0" function="internal">
        <lane id=":v1_0_0" index="0" speed="13.89" length="9.63" shape="-19.10,85.17 -19.71,82.74 -21.05,81.14 -23.13,80.38 -25.95,80.45"/>
    </edge>
    <edge id=":v1_1" function="internal">
        <lane id=":v1_1_0" index="0" speed="13.89" length="14.92" shape="-19.10,85.17 -19.58,81.46 -20.39,77.83 -21.49,74.27 -22.86,70.79"/>
    </edge>
    <edge id=":v1_2" function="internal">
        <lane id=":v1_2_0" index="0" speed="13.89" length="5.37" shape="-19.10,85.17 -18.90,81.19 -18.32,79.93"/>
    </edge>
    <edge id=":v1_3" function="internal">
        <lane id=":v1_3_0" index="0" speed="13.89" length="2.34" shape="-19.10,85.17 -18.41,83.91 -17.64,83.44"/>
    </edge>
    <edge id=":v1_16" function="internal">
        <lane id=":v1_16_0" index="0" speed="13.89" length="8.96" shape="-18.32,79.93 -17.53,78.19 -15.01,76.17 -11.34,75.12"/>
    </edge>
    <edge id=":v1_17" function="internal">
        <lane id=":v1_17_0" index="0" speed="13.89" length="2.34" shape="-17.64,83.44 -16.81,83.77 -15.92,84.91"/>
    </edge>
    <edge id=":v1_4" function="internal">
        <lane id=":v1_4_0" index="0" speed="13.89" length="9.34" shape="-10.92,78.30 -13.29,78.98 -14.91,80.31 -15.79,82.28 -15.92,84.91"/>
    </edge>
    <edge id=":v1_5" function="internal">
        <lane id=":v1_5_0" index="0" speed="13.89" length="15.18" shape="-10.92,78.30 -25.95,80.45"/>
    </edge>
    <edge id=":v1_6" function="internal">
        <lane id=":v1_6_0" index="0" speed="13.89" length="15.26" shape="-10.92,78.30 -14.74,78.23 -18.00,76.96 -20.71,74.48 -22.86,70.79"/>
    </edge>
    <edge id=":v1_7" function="internal">
        <lane id=":v1_7_0" index="0" speed="13.89" length="4.67" shape="-10.92,78.30 -12.22,77.66 -12.72,76.92 -12.43,76.07 -11.34,75.12"/>
    </edge>
    <edge id=":v1_8" function="internal">
        <lane id=":v1_8_0" index="0" speed="13.89" length="11.10" shape="-19.93,69.51 -18.35,72.25 -16.39,74.10 -14.05,75.06 -11.34,75.12"/>
    </edge>
    <edge id=":v1_9" function="internal">
        <lane id=":v1_9_0" index="0" speed="13.89" length="15.97" shape="-19.93,69.51 -18.52,73.14 -17.33,77.05 -16.43,81.04 -15.92,84.91"/>
    </edge>
    <edge id=":v1_10" function="internal">
        <lane id=":v1_10_0" index="0" speed="13.89" length="6.85" shape="-19.93,69.51 -18.77,73.71 -19.23,76.15"/>
    </edge>
    <edge id=":v1_11" function="internal">
        <lane id=":v1_11_0" index="0" speed="13.89" length="2.34" shape="-19.93,69.51 -20.18,70.93 -20.76,71.61"/>
    </edge>
    <edge id=":v1_18" function="internal">
        <lane id=":v1_18_0" index="0" speed="13.89" length="8.45" shape="-19.23,76.15 -19.38,76.94 -21.78,79.18 -25.95,80.45"/>
    </edge>
    <edge id=":v1_19" function="internal">
        <lane id=":v1_19_0" index="0" speed="13.89" length="2.34" shape="-20.76,71.61 -21.65,71.57 -22.86,70.79"/>
    </edge>
    <edge id=":v1_12" function="internal">
        <lane id=":v1_12_0" index="0" speed="13.89" length="9.08" shape="-26.44,77.28 -23.96,76.53 -22.54,75.20 -22.17,73.29 -22.86,70.79"/>
    </edge>
    <edge id=":v1_13" function="internal">
        <lane id=":v1_13_0" index="0" speed="13.89" length="15.25" shape="-26.44,77.28 -11.34,75.12"/>
    </edge>
    <edge id=":v1_14" function="internal">
        <lane id=":v1_14_0" index="0" speed="13.89" length="15.05" shape="-26.44,77.28 -22.11,77.20 -18.92,78.44 -16.85,81.01 -15.92,84.91"/>
    </edge>
    <edge id=":v1_15" function="internal">
        <lane id=":v1_15_0" index="0" speed="13.89" length="4.67" shape="-26.44,77.28 -25.13,77.89 -24.61,78.62 -24.89,79.48 -25.95,80.45"/>
    </edge>
    <edge id=":v10_0" function="internal">
        <lane id=":v10_0_0" index="0" speed="13.89" length="10.34" shape="20.80,80.71 19.75,77.97 18.16,76.12 16.05,75.16 13.40,75.10"/>
    </edge>
    <edge id=":v10_1" function="internal">
        <lane id=":v10_1_0" index="0" speed="13.89" length="15.41" shape="20.80,80.71 17.68,65.61"/>
    </edge>
    <edge id=":v10_2" function="internal">
        <lane id=":v10_2_0" index="0" speed="13.89" length="6.47" shape="20.80,80.71 20.37,76.45 21.13,74.39"/>
    </edge>
    <edge id=":v10_3" function="internal">
        <lane id=":v10_3_0" index="0" speed="13.89" length="2.34" shape="20.80,80.71 21.29,79.35 21.97,78.77"/>
    </edge>
    <edge id=":v10_16" function="internal">
        <lane id=":v10_16_0" index="0" speed="13.89" length="8.63" shape="21.13,74.39 21.50,73.38 24.17,71.49 28.39,70.78"/>
    </edge>
    <edge id=":v10_17" function="internal">
        <lane id=":v10_17_0" index="0" speed="13.89" length="2.34" shape="21.97,78.77 22.84,78.97 23.91,79.94"/>
    </edge>
    <edge id=":v10_4" function="internal">
        <lane id=":v10_4_0" index="0" speed="13.89" length="9.06" shape="28.46,73.98 25.93,74.41 24.32,75.54 23.65,77.38 23.91,79.94"/>
    </edge>
    <edge id=":v10_5" function="internal">
        <lane id=":v10_5_0" index="0" speed="13.89" length="15.11" shape="28.46,73.98 24.70,74.11 20.92,74.34 17.14,74.66 13.40,75.10"/>
    </edge>
    <edge id=":v10_6" function="internal">
        <lane id=":v10_6_0" index="0" speed="13.89" length="15.13" shape="28.46,73.98 24.27,73.54 21.07,71.99 18.88,69.35 17.68,65.61"/>
    </edge>
    <edge id=":v10_7" function="internal">
        <lane id=":v10_7_0" index="0" speed="13.89" length="4.67" shape="28.46,73.98 27.24,73.21 26.83,72.42 27.21,71.61 28.39,70.78"/>
    </edge>
    <edge id=":v10_8" function="internal">
        <lane id=":v10_8_0" index="0" speed="13.89" length="10.47" shape="20.84,65.10 21.67,67.64 23.20,69.44 25.44,70.48 28.39,70.78"/>
    </edge>
    <edge id=":v10_9" function="internal">
        <lane id=":v10_9_0" index="0" speed="13.89" length="15.15" shape="20.84,65.10 23.91,79.94"/>
    </edge>
    <edge id=":v10_10" function="internal">
        <lane id=":v10_10_0" index="0" speed="13.89" length="5.50" shape="20.84,65.10 20.91,69.04 20.32,70.48"/>
    </edge>
    <edge id=":v10_11" function="internal">
        <lane id=":v10_11_0" index="0" speed="13.89" length="2.34" shape="20.84,65.10 20.24,66.41 19.52,66.94"/>
    </edge>
    <edge id=":v10_18" function="internal">
        <lane id=":v10_18_0" index="0" speed="13.89" length="8.81" shape="20.32,70.48 19.70,72.02 17.19,74.04 13.40,75.10"/>
    </edge>
    <edge id=":v10_19" function="internal">
        <lane id=":v10_19_0" index="0" speed="13.89" length="2.34" shape="19.52,66.94 18.66,66.67 17.68,65.61"/>
    </edge>
    <edge id=":v10_12" function="internal">
        <lane id=":v10_12_0" index="0" speed="13.89" length="9.03" shape="12.99,71.93 15.38,71.25 16.96,69.98 17.73,68.10 17.68,65.61"/>
    </edge>
    <edge id=":v10_13" function="internal">
        <lane id=":v10_13_0" index="0" speed="13.89" length="15.45" shape="12.99,71.93 16.78,71.49 20.67,71.15 24.57,70.92 28.39,70.78"/>
    </edge>
    <edge id=":v10_14" function="internal">
        <lane id=":v10_14_0" index="0" speed="13.89" length="15.09" shape="12.99,71.93 16.91,72.00 20.04,73.36 22.37,76.01 23.91,79.94"/>
    </edge>
    <edge id=":v10_15" function="internal">
        <lane id=":v10_15_0" index="0" speed="13.89" length="4.67" shape="12.99,71.93 14.28,72.56 14.78,73.30 14.49,74.15 13.40,75.10"/>
    </edge>
    <edge id=":v11_0" function="internal">
        <lane id=":v11_0_0" index="0" speed="13.89" length="8.58" shape="14.48,45.90 14.44,43.50 15.20,41.77 16.77,40.71 19.14,40.33"/>
    </edge>
    <edge id=":v11_1" function="internal">
        <lane id=":v11_1_0" index="0" speed="13.89" length="2.62" shape="14.48,45.90 15.08,44.59 15.81,44.06 16.07,44.15"/>
    </edge>
    <edge id=":v11_4" function="internal">
        <lane id=":v11_4_0" index="0" speed="13.89" length="2.06" shape="16.07,44.15 16.66,44.33 17.64,45.39"/>
    </edge>
    <edge id=":v11_2" function="internal">
        <lane id=":v11_2_0" index="0" speed="13.89" length="2.86" shape="19.20,43.53 18.40,43.66 17.88,44.01 17.63,44.59 17.64,45.39"/>
    </edge>
    <edge id=":v11_3" function="internal">
        <lane id=":v11_3_0" index="0" speed="13.89" length="2.08" shape="19.20,43.53 17.98,42.75 17.69,42.18"/>
    </edge>
    <edge id=":v11_5" function="internal">
        <lane id=":v11_5_0" index="0" speed="13.89" length="2.59" shape="17.69,42.18 17.57,41.96 17.96,41.15 19.14,40.33"/>
    </edge>
    <edge id=":v12_0" function="internal">
        <lane id=":v12_0_0" index="0" speed="13.89" length="18.06" shape="67.61,47.47 65.83,45.43 62.44,44.01 57.44,43.21 50.83,43.02"/>
    </edge>
    <edge id=":v12_1" function="internal">
        <lane id=":v12_1_0" index="0" speed="13.89" length="20.29" shape="67.61,47.47 64.98,43.89 60.74,40.32 56.04,37.16 52.04,34.81"/>
    </edge>
    <edge id=":v12_2" function="internal">
        <lane id=":v12_2_0" index="0" speed="13.89" length="3.84" shape="67.61,47.47 66.71,44.22 66.72,43.75"/>
    </edge>
    <edge id=":v12_3" function="internal">
        <lane id=":v12_3_0" index="0" speed="13.89" length="1.89" shape="67.61,47.47 67.89,46.05 68.18,45.71"/>
    </edge>
    <edge id=":v12_16" function="internal">
        <lane id=":v12_16_0" index="0" speed="13.89" length="9.50" shape="66.72,43.75 66.76,41.06 67.76,37.98 69.70,34.98"/>
    </edge>
    <edge id=":v12_17" function="internal">
        <lane id=":v12_17_0" index="0" speed="13.89" length="2.78" shape="68.18,45.71 68.47,45.38 69.36,45.44 70.56,46.23"/>
    </edge>
    <edge id=":v12_4" function="internal">
        <lane id=":v12_4_0" index="0" speed="13.89" length="9.87" shape="72.18,37.01 70.72,39.24 69.96,41.53 69.91,43.86 70.56,46.23"/>
    </edge>
    <edge id=":v12_5" function="internal">
        <lane id=":v12_5_0" index="0" speed="13.89" length="22.73" shape="72.18,37.01 69.08,39.54 64.49,41.38 58.41,42.54 50.83,43.02"/>
    </edge>
    <edge id=":v12_6" function="internal">
        <lane id=":v12_6_0" index="0" speed="13.89" length="21.77" shape="72.18,37.01 69.02,39.20 64.60,39.56 58.94,38.10 52.04,34.81"/>
    </edge>
    <edge id=":v12_7" function="internal">
        <lane id=":v12_7_0" index="0" speed="13.89" length="4.67" shape="72.18,37.01 70.80,37.43 69.93,37.23 69.56,36.42 69.70,34.98"/>
    </edge>
    <edge id=":v12_8" function="internal">
        <lane id=":v12_8_0" index="0" speed="13.89" length="17.37" shape="53.60,32.01 59.37,34.86 63.99,36.30 67.43,36.34 69.70,34.98"/>
    </edge>
    <edge id=":v12_9" function="internal">
        <lane id=":v12_9_0" index="0" speed="13.89" length="22.34" shape="53.60,32.01 57.82,34.61 63.00,38.31 67.71,42.41 70.56,46.23"/>
    </edge>
    <edge id=":v12_10" function="internal">
        <lane id=":v12_10_0" index="0" speed="13.89" length="4.60" shape="53.60,32.01 56.37,35.01 56.41,35.53"/>
    </edge>
    <edge id=":v12_11" function="internal">
        <lane id=":v12_11_0" index="0" speed="13.89" length="2.34" shape="53.60,32.01 54.26,33.30 54.21,34.19"/>
    </edge>
    <edge id=":v12_18" function="internal">
        <lane id=":v12_18_0" index="0" speed="13.89" length="10.83" shape="56.41,35.53 56.64,38.63 54.70,41.69 50.83,43.02"/>
    </edge>
    <edge id=":v12_19" function="internal">
        <lane id=":v12_19_0" index="0" speed="13.89" length="2.34" shape="54.21,34.19 53.48,34.69 52.04,34.81"/>
    </edge>
    <edge id=":v12_12" function="internal">
        <lane id=":v12_12_0" index="0" speed="13.89" length="11.19" shape="50.78,39.82 54.59,39.44 56.07,38.48 55.22,36.94 52.04,34.81"/>
    </edge>
    <edge id=":v12_13" function="internal">
        <lane id=":v12_13_0" index="0" speed="13.89" length="19.98" shape="50.78,39.82 57.65,39.42 63.09,38.49 67.11,37.01 69.70,34.98"/>
    </edge>
    <edge id=":v12_14" function="internal">
        <lane id=":v12_14_0" index="0" speed="13.89" length="21.81" shape="50.78,39.82 58.39,40.12 64.22,41.28 68.28,43.32 70.56,46.23"/>
    </edge>
    <edge id=":v12_15" function="internal">
        <lane id=":v12_15_0" index="0" speed="13.89" length="4.67" shape="50.78,39.82 51.99,40.60 52.40,41.39 52.02,42.20 50.83,43.02"/>
    </edge>
    <edge id=":v13_0" function="internal">
        <lane id=":v13_0_0" index="0" speed="13.89" length="10.18" shape="78.57,75.85 77.51,73.63 75.81,72.17 73.45,71.48 70.43,71.56"/>
    </edge>
    <edge id=":v13_1" function="internal">
        <lane id=":v13_1_0" index="0" speed="13.89" length="14.75" shape="78.57,75.85 77.51,72.30 76.34,68.82 75.05,65.39 73.66,61.95"/>
    </edge>
    <edge id=":v13_2" function="internal">
        <lane id=":v13_2_0" index="0" speed="13.89" length="5.53" shape="78.57,75.85 78.10,72.17 78.55,70.41"/>
    </edge>
    <edge id=":v13_3" function="internal">
        <lane id=":v13_3_0" index="0" speed="13.89" length="2.34" shape="78.57,75.85 79.02,74.48 79.68,73.88"/>
    </edge>
    <edge id=":v13_16" function="internal">
        <lane id=":v13_16_0" index="0" speed="13.89" length="8.51" shape="78.55,70.41 78.90,69.07 80.97,66.55 84.31,64.60"/>
    </edge>
    <edge id=":v13_17" function="internal">
        <lane id=":v13_17_0" index="0" speed="13.89" length="2.34" shape="79.68,73.88 80.56,74.05 81.65,75.00"/>
    </edge>
    <edge id=":v13_4" function="internal">
        <lane id=":v13_4_0" index="0" speed="13.89" length="9.34" shape="85.54,67.55 83.29,68.85 81.90,70.53 81.35,72.57 81.65,75.00"/>
    </edge>
    <edge id=":v13_5" function="internal">
        <lane id=":v13_5_0" index="0" speed="13.89" length="15.67" shape="85.54,67.55 81.93,68.89 78.11,70.02 74.23,70.92 70.43,71.56"/>
    </edge>
    <edge id=":v13_6" function="internal">
        <lane id=":v13_6_0" index="0" speed="13.89" length="14.97" shape="85.54,67.55 81.75,68.47 78.51,67.85 75.81,65.67 73.66,61.95"/>
    </edge>
    <edge id=":v13_7" function="internal">
        <lane id=":v13_7_0" index="0" speed="13.89" length="4.67" shape="85.54,67.55 84.12,67.27 83.45,66.69 83.51,65.80 84.31,64.60"/>
    </edge>
    <edge id=":v13_8" function="internal">
        <lane id=":v13_8_0" index="0" speed="13.89" length="9.81" shape="76.61,60.71 78.04,63.22 79.80,64.71 81.89,65.16 84.31,64.60"/>
    </edge>
    <edge id=":v13_9" function="internal">
        <lane id=":v13_9_0" index="0" speed="13.89" length="15.15" shape="76.61,60.71 78.03,64.21 79.35,67.78 80.57,71.38 81.65,75.00"/>
    </edge>
    <edge id=":v13_10" function="internal">
        <lane id=":v13_10_0" index="0" speed="13.89" length="6.32" shape="76.61,60.71 77.71,64.93 77.31,66.85"/>
    </edge>
    <edge id=":v13_11" function="internal">
        <lane id=":v13_11_0" index="0" speed="13.89" length="2.34" shape="76.61,60.71 76.34,62.13 75.76,62.81"/>
    </edge>
    <edge id=":v13_18" function="internal">
        <lane id=":v13_18_0" index="0" speed="13.89" length="8.95" shape="77.31,66.85 77.04,68.14 74.61,70.35 70.43,71.56"/>
    </edge>
    <edge id=":v13_19" function="internal">
        <lane id=":v13_19_0" index="0" speed="13.89" length="2.34" shape="75.76,62.81 74.86,62.75 73.66,61.95"/>
    </edge>
    <edge id=":v13_12" function="internal">
        <lane id=":v13_12_0" index="0" speed="13.89" length="9.07" shape="69.99,68.39 72.47,67.68 73.91,66.36 74.31,64.45 73.66,61.95"/>
    </edge>
    <edge id=":v13_13" function="internal">
        <lane id=":v13_13_0" index="0" speed="13.89" length="14.85" shape="69.99,68.39 73.67,67.78 77.27,66.96 80.82,65.91 84.31,64.60"/>
    </edge>
    <edge id=":v13_14" function="internal">
        <lane id=":v13_14_0" index="0" speed="13.89" length="14.86" shape="69.99,68.39 74.26,68.31 77.63,69.38 80.10,71.61 81.65,75.00"/>
    </edge>
    <edge id=":v13_15" function="internal">
        <lane id=":v13_15_0" index="0" speed="13.89" length="4.67" shape="69.99,68.39 71.29,69.02 71.79,69.76 71.51,70.60 70.43,71.56"/>
    </edge>
    <edge id=":v14_0" function="internal">
        <lane id=":v14_0_0" index="0" speed="13.89" length="0.56" shape="58.03,73.30 57.86,73.32 57.75,73.33 57.63,73.34 57.47,73.34"/>
    </edge>
    <edge id=":v14_1" function="internal">
        <lane id=":v14_1_0" index="0" speed="13.89" length="2.34" shape="58.03,73.30 56.73,72.67 56.22,71.94"/>
    </edge>
    <edge id=":v14_4" function="internal">
        <lane id=":v14_4_0" index="0" speed="13.89" length="2.34" shape="56.22,71.94 56.51,71.09 57.58,70.13"/>
    </edge>
    <edge id=":v14_2" function="internal">
        <lane id=":v14_2_0" index="0" speed="13.89" length="0.19" shape="57.40,70.14 57.45,70.14 57.49,70.14 57.53,70.14 57.58,70.13"/>
    </edge>
    <edge id=":v14_3" function="internal">
        <lane id=":v14_3_0" index="0" speed="13.89" length="2.34" shape="57.40,70.14 58.61,70.92 59.03,71.71"/>
    </edge>
    <edge id=":v14_5" function="internal">
        <lane id=":v14_5_0" index="0" speed="13.89" length="2.34" shape="59.03,71.71 58.65,72.52 57.47,73.34"/>
    </edge>
    <edge id=":v15_0" function="internal">
        <lane id=":v15_0_0" index="0" speed="13.89" length="8.21" shape="7.32,-29.06 5.45,-28.53 3.81,-27.51 2.41,-26.02 1.24,-24.05"/>
    </edge>
    <edge id=":v15_1" function="internal">
        <lane id=":v15_1_0" index="0" speed="13.89" length="11.34" shape="7.32,-29.06 4.59,-28.95 1.92,-29.44 -0.69,-30.53 -3.24,-32.22"/>
    </edge>
    <edge id=":v15_2" function="internal">
        <lane id=":v15_2_0" index="0" speed="13.89" length="2.52" shape="7.32,-29.06 6.02,-29.68 5.50,-30.41 5.56,-30.58"/>
    </edge>
    <edge id=":v15_9" function="internal">
        <lane id=":v15_9_0" index="0" speed="13.89" length="2.16" shape="5.56,-30.58 5.78,-31.26 6.85,-32.23"/>
    </edge>
    <edge id=":v15_3" function="internal">
        <lane id=":v15_3_0" index="0" speed="13.89" length="8.72" shape="-1.26,-34.73 0.73,-33.40 2.75,-32.54 4.79,-32.15 6.85,-32.23"/>
    </edge>
    <edge id=":v15_4" function="internal">
        <lane id=":v15_4_0" index="0" speed="13.89" length="4.36" shape="-1.26,-34.73 0.96,-32.43 1.44,-31.37"/>
    </edge>
    <edge id=":v15_5" function="internal">
        <lane id=":v15_5_0" index="0" speed="13.89" length="2.19" shape="-1.26,-34.73 -0.81,-33.36 -0.96,-32.63"/>
    </edge>
    <edge id=":v15_10" function="internal">
        <lane id=":v15_10_0" index="0" speed="13.89" length="7.61" shape="1.44,-31.37 2.12,-29.89 2.21,-27.10 1.24,-24.05"/>
    </edge>
    <edge id=":v15_11" function="internal">
        <lane id=":v15_11_0" index="0" speed="13.89" length="2.49" shape="-0.96,-32.63 -0.99,-32.48 -1.80,-32.10 -3.24,-32.22"/>
    </edge>
    <edge id=":v15_6" function="internal">
        <lane id=":v15_6_0" index="0" speed="13.89" length="7.62" shape="-1.65,-25.42 -1.03,-27.36 -1.09,-29.14 -1.83,-30.76 -3.24,-32.22"/>
    </edge>
    <edge id=":v15_7" function="internal">
        <lane id=":v15_7_0" index="0" speed="13.89" length="11.35" shape="-1.65,-25.42 -0.06,-28.08 1.88,-30.10 4.19,-31.48 6.85,-32.23"/>
    </edge>
    <edge id=":v15_8" function="internal">
        <lane id=":v15_8_0" index="0" speed="13.89" length="4.67" shape="-1.65,-25.42 -0.41,-26.17 0.48,-26.19 1.03,-25.48 1.24,-24.05"/>
    </edge>
    <edge id=":v16_0" function="internal">
        <lane id=":v16_0_0" index="0" speed="13.89" length="10.50" shape="56.05,-36.23 53.52,-35.49 51.66,-34.02 50.47,-31.82 49.94,-28.88"/>
    </edge>
    <edge id=":v16_1" function="internal">
        <lane id=":v16_1_0" index="0" speed="13.89" length="15.01" shape="56.05,-36.23 41.19,-34.15"/>
    </edge>
    <edge id=":v16_2" function="internal">
        <lane id=":v16_2_0" index="0" speed="13.89" length="5.77" shape="56.05,-36.23 52.21,-36.29 50.44,-37.06"/>
    </edge>
    <edge id=":v16_3" function="internal">
        <lane id=":v16_3_0" index="0" speed="13.89" length="2.34" shape="56.05,-36.23 54.76,-36.87 54.26,-37.61"/>
    </edge>
    <edge id=":v16_16" function="internal">
        <lane id=":v16_16_0" index="0" speed="13.89" length="8.41" shape="50.44,-37.06 49.27,-37.57 47.22,-40.07 46.07,-43.80"/>
    </edge>
    <edge id=":v16_17" function="internal">
        <lane id=":v16_17_0" index="0" speed="13.89" length="2.34" shape="54.26,-37.61 54.56,-38.45 55.64,-39.40"/>
    </edge>
    <edge id=":v16_4" function="internal">
        <lane id=":v16_4_0" index="0" speed="13.89" length="9.15" shape="49.23,-44.31 49.97,-41.90 51.29,-40.28 53.18,-39.44 55.64,-39.40"/>
    </edge>
    <edge id=":v16_5" function="internal">
        <lane id=":v16_5_0" index="0" speed="13.89" length="15.47" shape="49.23,-44.31 49.72,-40.52 49.99,-36.62 50.06,-32.70 49.94,-28.88"/>
    </edge>
    <edge id=":v16_6" function="internal">
        <lane id=":v16_6_0" index="0" speed="13.89" length="14.81" shape="49.23,-44.31 49.26,-40.40 47.93,-37.40 45.24,-35.32 41.19,-34.15"/>
    </edge>
    <edge id=":v16_7" function="internal">
        <lane id=":v16_7_0" index="0" speed="13.89" length="4.67" shape="49.23,-44.31 48.63,-43.00 47.91,-42.48 47.05,-42.74 46.07,-43.80"/>
    </edge>
    <edge id=":v16_8" function="internal">
        <lane id=":v16_8_0" index="0" speed="13.89" length="9.61" shape="40.71,-37.31 43.39,-38.07 45.18,-39.40 46.07,-41.31 46.07,-43.80"/>
    </edge>
    <edge id=":v16_9" function="internal">
        <lane id=":v16_9_0" index="0" speed="13.89" length="15.08" shape="40.71,-37.31 55.64,-39.40"/>
    </edge>
    <edge id=":v16_10" function="internal">
        <lane id=":v16_10_0" index="0" speed="13.89" length="6.14" shape="40.71,-37.31 44.97,-37.34 46.68,-36.53"/>
    </edge>
    <edge id=":v16_11" function="internal">
        <lane id=":v16_11_0" index="0" speed="13.89" length="2.34" shape="40.71,-37.31 42.02,-36.70 42.53,-35.97"/>
    </edge>
    <edge id=":v16_18" function="internal">
        <lane id=":v16_18_0" index="0" speed="13.89" length="8.91" shape="46.68,-36.53 47.92,-35.94 49.58,-33.12 49.94,-28.88"/>
    </edge>
    <edge id=":v16_19" function="internal">
        <lane id=":v16_19_0" index="0" speed="13.89" length="2.34" shape="42.53,-35.97 42.26,-35.12 41.19,-34.15"/>
    </edge>
    <edge id=":v16_12" function="internal">
        <lane id=":v16_12_0" index="0" speed="13.89" length="9.06" shape="46.74,-29.07 46.53,-31.63 45.53,-33.32 43.75,-34.16 41.19,-34.15"/>
    </edge>
    <edge id=":v16_13" function="internal">
        <lane id=":v16_13_0" index="0" speed="13.89" length="14.77" shape="46.74,-29.07 46.87,-32.78 46.82,-36.46 46.56,-40.12 46.07,-43.80"/>
    </edge>
    <edge id=":v16_14" function="internal">
        <lane id=":v16_14_0" index="0" speed="13.89" length="14.98" shape="46.74,-29.07 47.50,-33.19 49.24,-36.28 51.96,-38.35 55.64,-39.40"/>
    </edge>
    <edge id=":v16_15" function="internal">
        <lane id=":v16_15_0" index="0" speed="13.89" length="4.67" shape="46.74,-29.07 47.61,-30.22 48.43,-30.57 49.21,-30.13 49.94,-28.88"/>
    </edge>
    <edge id=":v17_0" function="internal">
        <lane id=":v17_0_0" index="0" speed="13.89" length="9.36" shape="44.75,-51.95 44.00,-54.45 42.69,-56.20 40.82,-57.19 38.38,-57.43"/>
    </edge>
    <edge id=":v17_1" function="internal">
        <lane id=":v17_1_0" index="0" speed="13.89" length="14.29" shape="44.75,-51.95 44.67,-55.87 45.89,-58.85 48.38,-60.88 52.16,-61.96"/>
    </edge>
    <edge id=":v17_2" function="internal">
        <lane id=":v17_2_0" index="0" speed="13.89" length="4.67" shape="44.75,-51.95 45.35,-53.26 46.07,-53.78 46.92,-53.51 47.91,-52.46"/>
    </edge>
    <edge id=":v17_3" function="internal">
        <lane id=":v17_3_0" index="0" speed="13.89" length="9.03" shape="52.59,-58.79 50.20,-58.11 48.63,-56.82 47.86,-54.94 47.91,-52.46"/>
    </edge>
    <edge id=":v17_4" function="internal">
        <lane id=":v17_4_0" index="0" speed="13.89" length="14.27" shape="52.59,-58.79 38.38,-57.43"/>
    </edge>
    <edge id=":v17_5" function="internal">
        <lane id=":v17_5_0" index="0" speed="13.89" length="2.34" shape="52.59,-58.79 51.29,-59.42 50.79,-60.16"/>
    </edge>
    <edge id=":v17_9" function="internal">
        <lane id=":v17_9_0" index="0" speed="13.89" length="2.34" shape="50.79,-60.16 51.08,-61.00 52.16,-61.96"/>
    </edge>
    <edge id=":v17_6" function="internal">
        <lane id=":v17_6_0" index="0" speed="13.89" length="14.01" shape="38.21,-60.62 52.16,-61.96"/>
    </edge>
    <edge id=":v17_7" function="internal">
        <lane id=":v17_7_0" index="0" speed="13.89" length="5.39" shape="38.21,-60.62 41.93,-60.28 43.40,-59.51"/>
    </edge>
    <edge id=":v17_8" function="internal">
        <lane id=":v17_8_0" index="0" speed="13.89" length="2.34" shape="38.21,-60.62 39.45,-59.89 39.89,-59.11"/>
    </edge>
    <edge id=":v17_10" function="internal">
        <lane id=":v17_10_0" index="0" speed="13.89" length="8.74" shape="43.40,-59.51 44.78,-58.80 46.78,-56.20 47.91,-52.46"/>
    </edge>
    <edge id=":v17_11" function="internal">
        <lane id=":v17_11_0" index="0" speed="13.89" length="2.34" shape="39.89,-59.11 39.54,-58.29 38.38,-57.43"/>
    </edge>
    <edge id=":v18_0" function="internal">
        <lane id=":v18_0_0" index="0" speed="13.89" length="13.28" shape="-21.19,-46.39 -24.96,-48.83 -28.08,-49.67 -30.55,-48.92 -32.35,-46.56"/>
    </edge>
    <edge id=":v18_1" function="internal">
        <lane id=":v18_1_0" index="0" speed="13.89" length="19.51" shape="-21.19,-46.39 -24.92,-48.86 -29.69,-51.27 -34.65,-53.10 -38.99,-53.85"/>
    </edge>
    <edge id=":v18_2" function="internal">
        <lane id=":v18_2_0" index="0" speed="13.89" length="20.21" shape="-21.19,-46.39 -25.88,-50.98 -26.85,-54.38 -24.10,-56.61 -17.61,-57.64"/>
    </edge>
    <edge id=":v18_3" function="internal">
        <lane id=":v18_3_0" index="0" speed="13.89" length="4.67" shape="-21.19,-46.39 -21.63,-47.76 -21.45,-48.64 -20.64,-49.02 -19.20,-48.90"/>
    </edge>
    <edge id=":v18_4" function="internal">
        <lane id=":v18_4_0" index="0" speed="13.89" length="9.96" shape="-17.44,-54.45 -20.64,-53.94 -22.00,-52.84 -21.52,-51.16 -19.20,-48.90"/>
    </edge>
    <edge id=":v18_5" function="internal">
        <lane id=":v18_5_0" index="0" speed="13.89" length="17.72" shape="-17.44,-54.45 -22.69,-53.72 -26.92,-52.17 -30.14,-49.78 -32.35,-46.56"/>
    </edge>
    <edge id=":v18_6" function="internal">
        <lane id=":v18_6_0" index="0" speed="13.89" length="21.56" shape="-17.44,-54.45 -38.99,-53.85"/>
    </edge>
    <edge id=":v18_7" function="internal">
        <lane id=":v18_7_0" index="0" speed="13.89" length="2.34" shape="-17.44,-54.45 -18.68,-55.18 -19.13,-55.96"/>
    </edge>
    <edge id=":v18_16" function="internal">
        <lane id=":v18_16_0" index="0" speed="13.89" length="2.34" shape="-19.13,-55.96 -18.77,-56.78 -17.61,-57.64"/>
    </edge>
    <edge id=":v18_8" function="internal">
        <lane id=":v18_8_0" index="0" speed="13.89" length="21.36" shape="-38.97,-57.05 -17.61,-57.64"/>
    </edge>
    <edge id=":v18_9" function="internal">
        <lane id=":v18_9_0" index="0" speed="13.89" length="6.39" shape="-38.97,-57.05 -34.32,-56.19 -32.76,-55.62"/>
    </edge>
    <edge id=":v18_10" function="internal">
        <lane id=":v18_10_0" index="0" speed="13.89" length="6.04" shape="-38.97,-57.05 -34.25,-56.36 -33.23,-55.61"/>
    </edge>
    <edge id=":v18_11" function="internal">
        <lane id=":v18_11_0" index="0" speed="13.89" length="2.34" shape="-38.97,-57.05 -37.78,-56.24 -37.38,-55.43"/>
    </edge>
    <edge id=":v18_17" function="internal">
        <lane id=":v18_17_0" index="0" speed="13.89" length="15.18" shape="-32.76,-55.62 -28.68,-54.12 -23.25,-51.48 -19.20,-48.90"/>
    </edge>
    <edge id=":v18_18" function="internal">
        <lane id=":v18_18_0" index="0" speed="13.89" length="10.16" shape="-33.23,-55.61 -31.57,-54.38 -30.94,-51.12 -32.35,-46.56"/>
    </edge>
    <edge id=":v18_19" function="internal">
        <lane id=":v18_19_0" index="0" speed="13.89" length="2.34" shape="-37.38,-55.43 -37.79,-54.64 -38.99,-53.85"/>
    </edge>
    <edge id=":v18_12" function="internal">
        <lane id=":v18_12_0" index="0" speed="13.89" length="9.16" shape="-35.25,-47.92 -34.45,-50.49 -34.81,-52.34 -36.32,-53.46 -38.99,-53.85"/>
    </edge>
    <edge id=":v18_13" function="internal">
        <lane id=":v18_13_0" index="0" speed="13.89" length="21.18" shape="-35.25,-47.92 -32.57,-51.90 -28.73,-54.85 -23.75,-56.77 -17.61,-57.64"/>
    </edge>
    <edge id=":v18_14" function="internal">
        <lane id=":v18_14_0" index="0" speed="13.89" length="19.31" shape="-35.25,-47.92 -32.50,-51.72 -28.91,-53.15 -24.47,-52.21 -19.20,-48.90"/>
    </edge>
    <edge id=":v18_15" function="internal">
        <lane id=":v18_15_0" index="0" speed="13.89" length="4.67" shape="-35.25,-47.92 -34.02,-48.66 -33.12,-48.69 -32.57,-47.98 -32.35,-46.56"/>
    </edge>
    <edge id=":v19_0" function="internal">
        <lane id=":v19_0_0" index="0" speed="13.89" length="11.06" shape="-58.27,7.37 -58.65,5.01 -59.75,2.72 -61.54,0.52 -64.05,-1.61"/>
    </edge>
    <edge id=":v19_1" function="internal">
        <lane id=":v19_1_0" index="0" speed="13.89" length="13.99" shape="-58.27,7.37 -58.06,3.80 -57.38,0.47 -56.28,-2.76 -54.84,-6.07"/>
    </edge>
    <edge id=":v19_2" function="internal">
        <lane id=":v19_2_0" index="0" speed="13.89" length="2.44" shape="-58.27,7.37 -57.49,6.16 -56.69,5.75 -56.60,5.80"/>
    </edge>
    <edge id=":v19_9" function="internal">
        <lane id=":v19_9_0" index="0" speed="13.89" length="2.23" shape="-56.60,5.80 -55.89,6.14 -55.07,7.33"/>
    </edge>
    <edge id=":v19_3" function="internal">
        <lane id=":v19_3_0" index="0" speed="13.89" length="12.58" shape="-51.95,-4.71 -53.34,-1.62 -54.33,1.13 -54.91,3.98 -55.07,7.33"/>
    </edge>
    <edge id=":v19_4" function="internal">