<?xml version="1.0" encoding="UTF-8"?>

<!-- generated on 2022-03-18 23:31:27 by Eclipse SUMO netedit Version 1.10.0
<configuration xmlns:xsi="http://www.w3.org/2001/XMLSchema-instance" xsi:noNamespaceSchemaLocation="http://sumo.dlr.de/xsd/netconvertConfiguration.xsd">

    <input>
        <sumo-net-file value="assets/data/jumbo/jumbo.net.xml"/>
    </input>

    <output>
        <output-file value="/Users/yunhaowang/Desktop/sumo-gym/assets/data/jumbo/jumbo.net.xml"/>
    </output>

    <processing>
        <geometry.min-radius.fix.railways value="false"/>
        <geometry.max-grade.fix value="false"/>
        <offset.disable-normalization value="true"/>
        <lefthand value="false"/>
    </processing>

    <junctions>
        <no-turnarounds value="true"/>
        <junctions.corner-detail value="0"/>
        <junctions.limit-turn-speed value="-1"/>
        <rectangular-lane-cut value="false"/>
    </junctions>

    <pedestrian>
        <walkingareas value="false"/>
    </pedestrian>

    <report>
        <aggregate-warnings value="5"/>
    </report>

</configuration>
-->

<net version="1.9" xmlns:xsi="http://www.w3.org/2001/XMLSchema-instance" xsi:noNamespaceSchemaLocation="http://sumo.dlr.de/xsd/net_file.xsd">

    <location netOffset="0.00,0.00" convBoundary="-229.74,-98.74,139.51,120.88" origBoundary="-10000000000.00,-10000000000.00,10000000000.00,10000000000.00" projParameter="!"/>

    <edge id=":gneJ3_0" function="internal">
        <lane id=":gneJ3_0_0" index="0" speed="13.89" length="11.32" shape="-25.83,-92.29 -37.15,-92.05"/>
    </edge>
    <edge id=":gneJ3_1" function="internal">
        <lane id=":gneJ3_1_0" index="0" speed="13.89" length="2.34" shape="-25.83,-92.29 -27.05,-93.05 -27.48,-93.83"/>
    </edge>
    <edge id=":gneJ3_6" function="internal">
        <lane id=":gneJ3_6_0" index="0" speed="13.89" length="2.34" shape="-27.48,-93.83 -27.11,-94.64 -25.94,-95.49"/>
    </edge>
    <edge id=":gneJ3_2" function="internal">
        <lane id=":gneJ3_2_0" index="0" speed="13.89" length="11.25" shape="-37.19,-95.24 -25.94,-95.49"/>
    </edge>
    <edge id=":gneJ3_3" function="internal">
        <lane id=":gneJ3_3_0" index="0" speed="13.89" length="2.34" shape="-37.19,-95.24 -35.98,-94.46 -35.57,-93.67"/>
    </edge>
    <edge id=":gneJ3_7" function="internal">
        <lane id=":gneJ3_7_0" index="0" speed="13.89" length="2.34" shape="-35.57,-93.67 -35.96,-92.86 -37.15,-92.05"/>
    </edge>
    <edge id=":gneJ3_4" function="internal">
        <lane id=":gneJ3_4_0" index="0" speed="13.89" length="9.03" shape="-31.53,-86.49 -31.88,-88.95 -32.93,-90.69 -34.69,-91.73 -37.15,-92.05"/>
    </edge>
    <edge id=":gneJ3_5" function="internal">
        <lane id=":gneJ3_5_0" index="0" speed="13.89" length="11.82" shape="-31.53,-86.49 -31.18,-90.35 -30.13,-93.14 -28.38,-94.85 -25.94,-95.49"/>
    </edge>
    <edge id=":gneJ4_0" function="internal">
        <lane id=":gneJ4_0_0" index="0" speed="13.89" length="2.32" shape="104.38,-95.73 104.19,-96.32 103.85,-96.74 103.37,-96.98 102.75,-97.04"/>
    </edge>
    <edge id=":gneJ4_1" function="internal">
        <lane id=":gneJ4_1_0" index="0" speed="13.89" length="6.96" shape="102.63,-100.24 104.50,-100.05 105.93,-99.33 106.95,-98.08 107.53,-96.30"/>
    </edge>
    <edge id=":gneJ4_2" function="internal">
        <lane id=":gneJ4_2_0" index="0" speed="13.89" length="2.69" shape="102.63,-100.24 103.86,-99.48 104.29,-98.70 104.15,-98.38"/>
    </edge>
    <edge id=":gneJ4_3" function="internal">
        <lane id=":gneJ4_3_0" index="0" speed="13.89" length="1.99" shape="104.15,-98.38 103.92,-97.88 102.75,-97.04"/>
    </edge>
    <edge id=":v1_0" function="internal">
        <lane id=":v1_0_0" index="0" speed="13.89" length="9.16" shape="-10.92,78.30 -13.29,78.97 -14.91,80.25 -15.80,82.16 -15.93,84.68"/>
    </edge>
    <edge id=":v1_1" function="internal">
        <lane id=":v1_1_0" index="0" speed="13.89" length="15.18" shape="-10.92,78.30 -25.95,80.45"/>
    </edge>
    <edge id=":v1_2" function="internal">
        <lane id=":v1_2_0" index="0" speed="13.89" length="15.26" shape="-10.92,78.30 -14.74,78.23 -18.00,76.96 -20.71,74.48 -22.86,70.79"/>
    </edge>
    <edge id=":v1_3" function="internal">
        <lane id=":v1_3_0" index="0" speed="13.89" length="4.67" shape="-10.92,78.30 -12.22,77.66 -12.72,76.92 -12.43,76.07 -11.34,75.12"/>
    </edge>
    <edge id=":v1_4" function="internal">
        <lane id=":v1_4_0" index="0" speed="13.89" length="11.10" shape="-19.93,69.51 -18.35,72.25 -16.39,74.10 -14.05,75.06 -11.34,75.12"/>
    </edge>
    <edge id=":v1_5" function="internal">
        <lane id=":v1_5_0" index="0" speed="13.89" length="15.76" shape="-19.93,69.51 -18.52,73.11 -17.33,76.94 -16.45,80.85 -15.93,84.68"/>
    </edge>
    <edge id=":v1_6" function="internal">
        <lane id=":v1_6_0" index="0" speed="13.89" length="15.29" shape="-19.93,69.51 -18.77,73.71 -19.38,76.94 -21.78,79.18 -25.95,80.45"/>
    </edge>
    <edge id=":v1_7" function="internal">
        <lane id=":v1_7_0" index="0" speed="13.89" length="4.67" shape="-19.93,69.51 -20.18,70.93 -20.76,71.61 -21.65,71.57 -22.86,70.79"/>
    </edge>
    <edge id=":v1_8" function="internal">
        <lane id=":v1_8_0" index="0" speed="13.89" length="9.08" shape="-26.44,77.28 -23.96,76.53 -22.54,75.20 -22.17,73.29 -22.86,70.79"/>
    </edge>
    <edge id=":v1_9" function="internal">
        <lane id=":v1_9_0" index="0" speed="13.89" length="15.25" shape="-26.44,77.28 -11.34,75.12"/>
    </edge>
    <edge id=":v1_10" function="internal">
        <lane id=":v1_10_0" index="0" speed="13.89" length="14.88" shape="-26.44,77.28 -22.12,77.19 -18.93,78.39 -16.86,80.88 -15.93,84.68"/>
    </edge>
    <edge id=":v1_11" function="internal">
        <lane id=":v1_11_0" index="0" speed="13.89" length="4.67" shape="-26.44,77.28 -25.13,77.89 -24.61,78.62 -24.89,79.48 -25.95,80.45"/>
    </edge>
    <edge id=":v10_0" function="internal">
        <lane id=":v10_0_0" index="0" speed="13.89" length="8.64" shape="20.52,79.57 19.64,77.32 18.30,75.81 16.51,75.03 14.26,74.99"/>
    </edge>
    <edge id=":v10_1" function="internal">
        <lane id=":v10_1_0" index="0" speed="13.89" length="11.43" shape="20.52,79.57 19.98,75.83 20.46,73.11 21.95,71.40 24.47,70.70"/>
    </edge>
    <edge id=":v10_2" function="internal">
        <lane id=":v10_2_0" index="0" speed="13.89" length="10.48" shape="24.68,73.89 14.26,74.99"/>
    </edge>
    <edge id=":v10_3" function="internal">
        <lane id=":v10_3_0" index="0" speed="13.89" length="2.34" shape="24.68,73.89 23.43,73.17 22.98,72.40"/>
    </edge>
    <edge id=":v10_6" function="internal">
        <lane id=":v10_6_0" index="0" speed="13.89" length="2.34" shape="22.98,72.40 23.33,71.57 24.47,70.70"/>
    </edge>
    <edge id=":v10_4" function="internal">
        <lane id=":v10_4_0" index="0" speed="13.89" length="10.69" shape="13.84,71.81 24.47,70.70"/>
    </edge>
    <edge id=":v10_5" function="internal">
        <lane id=":v10_5_0" index="0" speed="13.89" length="2.34" shape="13.84,71.81 15.14,72.45 15.64,73.19"/>
    </edge>
    <edge id=":v10_7" function="internal">
        <lane id=":v10_7_0" index="0" speed="13.89" length="2.34" shape="15.64,73.19 15.34,74.04 14.26,74.99"/>
    </edge>
    <edge id=":v13_0" function="internal">
        <lane id=":v13_0_0" index="0" speed="13.89" length="9.05" shape="86.17,69.59 83.71,70.22 82.18,71.49 81.58,73.38 81.90,75.90"/>
    </edge>
    <edge id=":v13_1" function="internal">
        <lane id=":v13_1_0" index="0" speed="13.89" length="12.51" shape="86.17,69.59 73.72,70.75"/>
    </edge>
    <edge id=":v13_2" function="internal">
        <lane id=":v13_2_0" index="0" speed="13.89" length="2.34" shape="86.17,69.59 84.89,68.92 84.40,68.17"/>
    </edge>
    <edge id=":v13_9" function="internal">
        <lane id=":v13_9_0" index="0" speed="13.89" length="2.34" shape="84.40,68.17 84.71,67.33 85.82,66.40"/>
    </edge>
    <edge id=":v13_3" function="internal">
        <lane id=":v13_3_0" index="0" speed="13.89" length="10.36" shape="77.87,61.42 78.96,63.86 80.65,65.51 82.94,66.36 85.82,66.40"/>
    </edge>
    <edge id=":v13_4" function="internal">
        <lane id=":v13_4_0" index="0" speed="13.89" length="15.03" shape="77.87,61.42 81.90,75.90"/>
    </edge>
    <edge id=":v13_5" function="internal">
        <lane id=":v13_5_0" index="0" speed="13.89" length="12.14" shape="77.87,61.42 78.54,65.34 78.07,68.20 76.46,70.00 73.72,70.75"/>
    </edge>
    <edge id=":v13_6" function="internal">
        <lane id=":v13_6_0" index="0" speed="13.89" length="12.36" shape="73.51,67.55 85.82,66.40"/>
    </edge>
    <edge id=":v13_7" function="internal">
        <lane id=":v13_7_0" index="0" speed="13.89" length="4.34" shape="73.51,67.55 76.27,67.93 77.57,68.78"/>
    </edge>
    <edge id=":v13_8" function="internal">
        <lane id=":v13_8_0" index="0" speed="13.89" length="2.34" shape="73.51,67.55 74.76,68.27 75.21,69.05"/>
    </edge>
    <edge id=":v13_10" function="internal">
        <lane id=":v13_10_0" index="0" speed="13.89" length="8.53" shape="77.57,68.78 78.59,69.45 80.47,72.10 81.90,75.90"/>
    </edge>
    <edge id=":v13_11" function="internal">
        <lane id=":v13_11_0" index="0" speed="13.89" length="2.34" shape="75.21,69.05 74.86,69.87 73.72,70.75"/>
    </edge>
    <edge id=":v15_0" function="internal">
        <lane id=":v15_0_0" index="0" speed="13.89" length="8.79" shape="7.40,-29.07 5.44,-28.51 3.67,-27.45 2.11,-25.89 0.75,-23.82"/>
    </edge>
    <edge id=":v15_1" function="internal">
        <lane id=":v15_1_0" index="0" speed="13.89" length="3.84" shape="7.40,-29.07 4.53,-29.03 3.59,-29.26"/>
    </edge>
    <edge id=":v15_2" function="internal">
        <lane id=":v15_2_0" index="0" speed="13.89" length="2.12" shape="7.40,-29.07 6.09,-29.69 5.70,-30.24"/>
    </edge>
    <edge id=":v15_6" function="internal">
        <lane id=":v15_6_0" index="0" speed="13.89" length="9.51" shape="3.59,-29.26 1.54,-29.75 -1.58,-31.23 -4.83,-33.47"/>
    </edge>
    <edge id=":v15_7" function="internal">
        <lane id=":v15_7_0" index="0" speed="13.89" length="2.56" shape="5.70,-30.24 5.58,-30.42 5.85,-31.27 6.92,-32.24"/>
    </edge>
    <edge id=":v15_3" function="internal">
        <lane id=":v15_3_0" index="0" speed="13.89" length="9.42" shape="-2.06,-25.35 -1.39,-27.42 -1.62,-29.46 -2.77,-31.48 -4.83,-33.47"/>
    </edge>
    <edge id=":v15_4" function="internal">
        <lane id=":v15_4_0" index="0" speed="13.89" length="11.74" shape="-2.06,-25.35 -0.27,-28.05 1.83,-30.09 4.22,-31.49 6.92,-32.24"/>
    </edge>
    <edge id=":v15_5" function="internal">
        <lane id=":v15_5_0" index="0" speed="13.89" length="2.48" shape="-2.06,-25.35 -0.79,-26.02 0.11,-25.99 0.19,-25.88"/>
    </edge>
    <edge id=":v15_8" function="internal">
        <lane id=":v15_8_0" index="0" speed="13.89" length="2.20" shape="0.19,-25.88 0.62,-25.26 0.75,-23.82"/>
    </edge>
    <edge id=":v16_0" function="internal">
        <lane id=":v16_0_0" index="0" speed="13.89" length="9.05" shape="56.65,-36.30 54.21,-35.63 52.69,-34.34 52.09,-32.44 52.42,-29.92"/>
    </edge>
    <edge id=":v16_1" function="internal">
        <lane id=":v16_1_0" index="0" speed="13.89" length="11.70" shape="56.65,-36.30 45.05,-34.73"/>
    </edge>
    <edge id=":v16_2" function="internal">
        <lane id=":v16_2_0" index="0" speed="13.89" length="2.34" shape="56.65,-36.30 55.36,-36.94 54.86,-37.69"/>
    </edge>
    <edge id=":v16_9" function="internal">
        <lane id=":v16_9_0" index="0" speed="13.89" length="2.34" shape="54.86,-37.69 55.15,-38.53 56.24,-39.48"/>
    </edge>
    <edge id=":v16_3" function="internal">
        <lane id=":v16_3_0" index="0" speed="13.89" length="9.61" shape="49.24,-44.27 50.01,-41.88 51.44,-40.28 53.52,-39.48 56.24,-39.48"/>
    </edge>
    <edge id=":v16_4" function="internal">
        <lane id=":v16_4_0" index="0" speed="13.89" length="14.71" shape="49.24,-44.27 49.88,-40.63 50.62,-37.05 51.47,-33.50 52.42,-29.92"/>
    </edge>
    <edge id=":v16_5" function="internal">
        <lane id=":v16_5_0" index="0" speed="13.89" length="11.75" shape="49.24,-44.27 49.50,-40.41 48.90,-37.53 47.41,-35.64 45.05,-34.73"/>
    </edge>
    <edge id=":v16_6" function="internal">
        <lane id=":v16_6_0" index="0" speed="13.89" length="11.77" shape="44.58,-37.89 56.24,-39.48"/>
    </edge>
    <edge id=":v16_7" function="internal">
        <lane id=":v16_7_0" index="0" speed="13.89" length="4.16" shape="44.58,-37.89 47.09,-37.70 48.46,-36.81"/>
    </edge>
    <edge id=":v16_8" function="internal">
        <lane id=":v16_8_0" index="0" speed="13.89" length="2.34" shape="44.58,-37.89 45.88,-37.28 46.40,-36.55"/>
    </edge>
    <edge id=":v16_10" function="internal">
        <lane id=":v16_10_0" index="0" speed="13.89" length="8.10" shape="48.46,-36.81 49.23,-36.31 51.01,-33.71 52.42,-29.92"/>
    </edge>
    <edge id=":v16_11" function="internal">
        <lane id=":v16_11_0" index="0" speed="13.89" length="2.34" shape="46.40,-36.55 46.12,-35.70 45.05,-34.73"/>
    </edge>
    <edge id=":v17_0" function="internal">
        <lane id=":v17_0_0" index="0" speed="13.89" length="9.03" shape="52.59,-58.79 50.20,-58.11 48.63,-56.82 47.86,-54.94 47.91,-52.46"/>
    </edge>
    <edge id=":v17_1" function="internal">
        <lane id=":v17_1_0" index="0" speed="13.89" length="11.54" shape="52.59,-58.79 41.12,-57.57"/>
    </edge>
    <edge id=":v17_2" function="internal">
        <lane id=":v17_2_0" index="0" speed="13.89" length="2.34" shape="52.59,-58.79 51.29,-59.42 50.79,-60.16"/>
    </edge>
    <edge id=":v17_6" function="internal">
        <lane id=":v17_6_0" index="0" speed="13.89" length="2.34" shape="50.79,-60.16 51.08,-61.00 52.16,-61.96"/>
    </edge>
    <edge id=":v17_3" function="internal">
        <lane id=":v17_3_0" index="0" speed="13.89" length="11.27" shape="40.95,-60.77 52.16,-61.96"/>
    </edge>
    <edge id=":v17_4" function="internal">
        <lane id=":v17_4_0" index="0" speed="13.89" length="3.90" shape="40.95,-60.77 43.47,-60.36 44.54,-59.54"/>
    </edge>
    <edge id=":v17_5" function="internal">
        <lane id=":v17_5_0" index="0" speed="13.89" length="2.34" shape="40.95,-60.77 42.19,-60.03 42.63,-59.26"/>
    </edge>
    <edge id=":v17_7" function="internal">
        <lane id=":v17_7_0" index="0" speed="13.89" length="8.05" shape="44.54,-59.54 45.47,-58.84 46.95,-56.20 47.91,-52.46"/>
    </edge>
    <edge id=":v17_8" function="internal">
        <lane id=":v17_8_0" index="0" speed="13.89" length="2.34" shape="42.63,-59.26 42.28,-58.43 41.12,-57.57"/>
    </edge>
    <edge id=":v18_0" function="internal">
        <lane id=":v18_0_0" index="0" speed="13.89" length="10.06" shape="-25.38,-49.70 -27.80,-51.28 -30.16,-52.15 -32.48,-52.33 -34.75,-51.81"/>
    </edge>
    <edge id=":v18_1" function="internal">
        <lane id=":v18_1_0" index="0" speed="13.89" length="13.23" shape="-25.38,-49.70 -28.10,-52.24 -30.04,-54.95 -31.20,-57.83 -31.58,-60.88"/>
    </edge>
    <edge id=":v18_2" function="internal">
        <lane id=":v18_2_0" index="0" speed="13.89" length="13.05" shape="-25.38,-49.70 -28.65,-52.82 -29.54,-55.12 -28.04,-56.62 -24.16,-57.29"/>
    </edge>
    <edge id=":v18_3" function="internal">
        <lane id=":v18_3_0" index="0" speed="13.89" length="11.08" shape="-23.99,-54.10 -27.12,-53.88 -29.49,-53.53 -31.80,-52.89 -34.75,-51.81"/>
    </edge>
    <edge id=":v18_4" function="internal">
        <lane id=":v18_4_0" index="0" speed="13.89" length="3.65" shape="-23.99,-54.10 -27.31,-54.37 -27.59,-54.51"/>
    </edge>
    <edge id=":v18_5" function="internal">
        <lane id=":v18_5_0" index="0" speed="13.89" length="2.12" shape="-23.99,-54.10 -25.23,-54.83 -25.56,-55.42"/>
    </edge>
    <edge id=":v18_6" function="internal">
        <lane id=":v18_6_0" index="0" speed="13.89" length="8.11" shape="-27.59,-54.51 -29.69,-55.59 -31.11,-57.76 -31.58,-60.88"/>
    </edge>
    <edge id=":v18_7" function="internal">
        <lane id=":v18_7_0" index="0" speed="13.89" length="2.55" shape="-25.56,-55.42 -25.67,-55.61 -25.31,-56.43 -24.16,-57.29"/>
    </edge>
    <edge id=":v2_0" function="internal">
        <lane id=":v2_0_0" index="0" speed="13.89" length="9.97" shape="-34.93,43.27 -35.65,40.93 -35.78,38.55 -35.31,36.13 -34.26,33.67"/>
    </edge>
    <edge id=":v2_1" function="internal">
        <lane id=":v2_1_0" index="0" speed="13.89" length="2.53" shape="-34.93,43.27 -34.68,41.85 -34.11,41.16 -33.92,41.17"/>
    </edge>
    <edge id=":v2_6" function="internal">
        <lane id=":v2_6_0" index="0" speed="13.89" length="2.15" shape="-33.92,41.17 -33.21,41.20 -32.00,41.98"/>
    </edge>
    <edge id=":v2_2" function="internal">
        <lane id=":v2_2_0" index="0" speed="13.89" length="7.04" shape="-31.45,35.21 -32.21,36.97 -32.56,38.69 -32.49,40.36 -32.00,41.98"/>
    </edge>
    <edge id=":v2_3" function="internal">
        <lane id=":v2_3_0" index="0" speed="13.89" length="2.17" shape="-31.45,35.21 -32.72,35.88 -33.45,35.85"/>
    </edge>
    <edge id=":v2_7" function="internal">
        <lane id=":v2_7_0" index="0" speed="13.89" length="2.50" shape="-33.45,35.85 -33.62,35.84 -34.13,35.11 -34.26,33.67"/>
    </edge>
    <edge id=":v2_4" function="internal">
        <lane id=":v2_4_0" index="0" speed="13.89" length="8.09" shape="-41.36,36.37 -38.93,36.44 -36.94,36.01 -35.38,35.09 -34.26,33.67"/>
    </edge>
    <edge id=":v2_5" function="internal">
        <lane id=":v2_5_0" index="0" speed="13.89" length="11.42" shape="-41.36,36.37 -38.05,37.04 -35.38,38.20 -33.37,39.85 -32.00,41.98"/>
    </edge>
    <edge id=":v20_0" function="internal">
        <lane id=":v20_0_0" index="0" speed="13.89" length="9.64" shape="-51.81,84.41 -54.62,84.73 -56.58,84.61 -58.49,84.04 -61.14,83.00"/>
    </edge>
    <edge id=":v20_1" function="internal">
        <lane id=":v20_1_0" index="0" speed="13.89" length="2.34" shape="-51.81,84.41 -53.12,83.80 -53.63,83.07"/>
    </edge>
    <edge id=":v20_6" function="internal">
        <lane id=":v20_6_0" index="0" speed="13.89" length="2.34" shape="-53.63,83.07 -53.36,82.22 -52.29,81.24"/>
    </edge>
    <edge id=":v20_2" function="internal">
        <lane id=":v20_2_0" index="0" speed="13.89" length="7.95" shape="-59.98,80.02 -57.79,80.89 -56.22,81.38 -54.61,81.50 -52.29,81.24"/>
    </edge>
    <edge id=":v20_3" function="internal">
        <lane id=":v20_3_0" index="0" speed="13.89" length="2.34" shape="-59.98,80.02 -59.15,81.20 -59.07,82.09"/>
    </edge>
    <edge id=":v20_7" function="internal">
        <lane id=":v20_7_0" index="0" speed="13.89" length="2.34" shape="-59.07,82.09 -59.73,82.69 -61.14,83.00"/>
    </edge>
    <edge id=":v20_4" function="internal">
        <lane id=":v20_4_0" index="0" speed="13.89" length="7.89" shape="-57.63,89.45 -57.76,87.17 -58.39,85.34 -59.52,83.95 -61.14,83.00"/>
    </edge>
    <edge id=":v20_5" function="internal">
        <lane id=":v20_5_0" index="0" speed="13.89" length="10.66" shape="-57.63,89.45 -57.16,86.14 -56.12,83.68 -54.49,82.04 -52.29,81.24"/>
    </edge>
    <edge id=":v22_0" function="internal">
        <lane id=":v22_0_0" index="0" speed="13.89" length="9.18" shape="110.49,-61.05 109.77,-63.42 108.44,-65.00 106.50,-65.79 103.95,-65.79"/>
    </edge>
    <edge id=":v22_1" function="internal">
        <lane id=":v22_1_0" index="0" speed="13.89" length="14.45" shape="110.49,-61.05 108.12,-75.31"/>
    </edge>
    <edge id=":v22_2" function="internal">
        <lane id=":v22_2_0" index="0" speed="13.89" length="14.37" shape="111.26,-75.89 111.41,-71.93 110.24,-68.92 107.76,-66.88 103.95,-65.79"/>
    </edge>
    <edge id=":v22_3" function="internal">
        <lane id=":v22_3_0" index="0" speed="13.89" length="2.56" shape="111.26,-75.89 110.69,-74.56 109.98,-74.02 109.76,-74.09"/>
    </edge>
    <edge id=":v22_6" function="internal">
        <lane id=":v22_6_0" index="0" speed="13.89" length="2.11" shape="109.76,-74.09 109.12,-74.27 108.12,-75.31"/>
    </edge>
    <edge id=":v22_4" function="internal">
        <lane id=":v22_4_0" index="0" speed="13.89" length="9.04" shape="103.51,-68.96 105.91,-69.65 107.47,-70.93 108.21,-72.82 108.12,-75.31"/>
    </edge>
    <edge id=":v22_5" function="internal">
        <lane id=":v22_5_0" index="0" speed="13.89" length="2.55" shape="103.51,-68.96 104.81,-68.33 105.31,-67.59 105.25,-67.39"/>
    </edge>
    <edge id=":v22_7" function="internal">
        <lane id=":v22_7_0" index="0" speed="13.89" length="2.12" shape="105.25,-67.39 105.03,-66.75 103.95,-65.79"/>
    </edge>
    <edge id=":v23_0" function="internal">
        <lane id=":v23_0_0" index="0" speed="13.89" length="9.30" shape="114.36,-38.22 113.49,-40.51 112.05,-42.05 110.04,-42.82 107.45,-42.83"/>
    </edge>
    <edge id=":v23_1" function="internal">
        <lane id=":v23_1_0" index="0" speed="13.89" length="14.30" shape="114.36,-38.22 111.79,-52.29"/>
    </edge>
    <edge id=":v23_2" function="internal">
        <lane id=":v23_2_0" index="0" speed="13.89" length="9.03" shape="107.04,-46.00 109.43,-46.66 111.02,-47.93 111.81,-49.81 111.79,-52.29"/>
    </edge>
    <edge id=":v23_3" function="internal">
        <lane id=":v23_3_0" index="0" speed="13.89" length="2.54" shape="107.04,-46.00 108.33,-45.36 108.83,-44.62 108.76,-44.42"/>
    </edge>
    <edge id=":v23_4" function="internal">
        <lane id=":v23_4_0" index="0" speed="13.89" length="2.13" shape="108.76,-44.42 108.53,-43.77 107.45,-42.83"/>
    </edge>
    <edge id=":v24_0" function="internal">
        <lane id=":v24_0_0" index="0" speed="13.89" length="9.18" shape="136.67,69.70 136.17,67.26 134.97,65.61 133.09,64.74 130.52,64.67"/>
    </edge>
    <edge id=":v24_1" function="internal">
        <lane id=":v24_1_0" index="0" speed="13.89" length="14.64" shape="136.67,69.70 136.39,66.02 135.97,62.42 135.40,58.84 134.68,55.21"/>
    </edge>
    <edge id=":v24_2" function="internal">
        <lane id=":v24_2_0" index="0" speed="13.89" length="9.04" shape="130.17,61.49 132.60,60.86 134.17,59.60 134.86,57.72 134.68,55.21"/>
    </edge>
    <edge id=":v24_3" function="internal">
        <lane id=":v24_3_0" index="0" speed="13.89" length="2.55" shape="130.17,61.49 131.45,62.15 131.94,62.91 131.86,63.11"/>
    </edge>
    <edge id=":v24_4" function="internal">
        <lane id=":v24_4_0" index="0" speed="13.89" length="2.12" shape="131.86,63.11 131.63,63.74 130.52,64.67"/>
    </edge>
    <edge id=":v25_0" function="internal">
        <lane id=":v25_0_0" index="0" speed="13.89" length="9.04" shape="132.11,89.72 134.59,89.37 136.31,88.31 137.28,86.54 137.49,84.05"/>
    </edge>
    <edge id=":v25_1" function="internal">
        <lane id=":v25_1_0" index="0" speed="13.89" length="4.67" shape="132.11,89.72 133.31,90.52 133.71,91.32 133.30,92.12 132.10,92.92"/>
    </edge>
    <edge id=":v27_0" function="internal">
        <lane id=":v27_0_0" index="0" speed="13.89" length="9.06" shape="-136.10,-84.27 -136.66,-86.78 -137.89,-88.31 -139.76,-88.89 -142.30,-88.49"/>
    </edge>
    <edge id=":v27_1" function="internal">
        <lane id=":v27_1_0" index="0" speed="13.89" length="14.90" shape="-136.10,-84.27 -135.86,-88.51 -134.39,-91.55 -131.68,-93.40 -127.74,-94.06"/>
    </edge>
    <edge id=":v27_2" function="internal">
        <lane id=":v27_2_0" index="0" speed="13.89" length="2.54" shape="-136.10,-84.27 -135.40,-85.53 -134.63,-85.99 -134.44,-85.91"/>
    </edge>
    <edge id=":v27_9" function="internal">
        <lane id=":v27_9_0" index="0" speed="13.89" length="2.13" shape="-134.44,-85.91 -133.80,-85.65 -132.91,-84.52"/>
    </edge>
    <edge id=":v27_3" function="internal">
        <lane id=":v27_3_0" index="0" speed="13.89" length="9.50" shape="-127.69,-90.86 -130.16,-90.43 -131.85,-89.24 -132.77,-87.26 -132.91,-84.52"/>
    </edge>
    <edge id=":v27_4" function="internal">
        <lane id=":v27_4_0" index="0" speed="13.89" length="14.84" shape="-127.69,-90.86 -131.41,-90.67 -135.08,-90.20 -138.71,-89.47 -142.30,-88.49"/>
    </edge>
    <edge id=":v27_5" function="internal">
        <lane id=":v27_5_0" index="0" speed="13.89" length="2.34" shape="-127.69,-90.86 -128.90,-91.64 -129.32,-92.44"/>
    </edge>
    <edge id=":v27_10" function="internal">
        <lane id=":v27_10_0" index="0" speed="13.89" length="2.34" shape="-129.32,-92.44 -128.93,-93.24 -127.74,-94.06"/>
    </edge>
    <edge id=":v27_6" function="internal">
        <lane id=":v27_6_0" index="0" speed="13.89" length="15.75" shape="-143.24,-91.55 -139.50,-92.55 -135.57,-93.33 -131.60,-93.84 -127.74,-94.06"/>
    </edge>
    <edge id=":v27_7" function="internal">
        <lane id=":v27_7_0" index="0" speed="13.89" length="6.69" shape="-143.24,-91.55 -139.01,-92.21 -136.70,-91.51"/>
    </edge>
    <edge id=":v27_8" function="internal">
        <lane id=":v27_8_0" index="0" speed="13.89" length="2.34" shape="-143.24,-91.55 -141.86,-91.14 -141.24,-90.49"/>
    </edge>
    <edge id=":v27_11" function="internal">
        <lane id=":v27_11_0" index="0" speed="13.89" length="8.41" shape="-136.70,-91.51 -135.88,-91.26 -133.85,-88.69 -132.91,-84.52"/>
    </edge>
    <edge id=":v27_12" function="internal">
        <lane id=":v27_12_0" index="0" speed="13.89" length="2.34" shape="-141.24,-90.49 -141.39,-89.61 -142.30,-88.49"/>
    </edge>
    <edge id=":v28_0" function="internal">
        <lane id=":v28_0_0" index="0" speed="13.89" length="2.03" shape="-207.72,-68.50 -208.21,-68.28 -208.56,-67.95 -208.77,-67.53 -208.85,-67.00"/>
    </edge>
    <edge id=":v28_1" function="internal">
        <lane id=":v28_1_0" index="0" speed="13.89" length="1.99" shape="-207.72,-68.50 -209.10,-68.91 -209.48,-69.31"/>
    </edge>
    <edge id=":v28_4" function="internal">
        <lane id=":v28_4_0" index="0" speed="13.89" length="2.68" shape="-209.48,-69.31 -209.72,-69.56 -209.57,-70.44 -208.65,-71.56"/>
    </edge>
    <edge id=":v28_2" function="internal">
        <lane id=":v28_2_0" index="0" speed="13.89" length="6.08" shape="-212.05,-67.05 -211.82,-68.64 -211.17,-69.92 -210.12,-70.90 -208.65,-71.56"/>
    </edge>
    <edge id=":v28_3" function="internal">
        <lane id=":v28_3_0" index="0" speed="13.89" length="2.70" shape="-212.05,-67.05 -211.23,-68.24 -210.42,-68.63 -210.10,-68.46"/>
    </edge>
    <edge id=":v28_5" function="internal">
        <lane id=":v28_5_0" index="0" speed="13.89" length="1.97" shape="-210.10,-68.46 -209.63,-68.21 -208.85,-67.00"/>
    </edge>
    <edge id=":v31_0" function="internal">
        <lane id=":v31_0_0" index="0" speed="13.89" length="7.41" shape="-205.45,-18.23 -207.60,-17.87 -209.31,-17.15 -210.60,-16.06 -211.46,-14.60"/>
    </edge>
    <edge id=":v31_1" function="internal">
        <lane id=":v31_1_0" index="0" speed="13.89" length="9.80" shape="-205.45,-18.23 -208.71,-18.29 -211.03,-19.03 -212.41,-20.45 -212.84,-22.54"/>
    </edge>
    <edge id=":v31_2" function="internal">
        <lane id=":v31_2_0" index="0" speed="13.89" length="8.17" shape="-209.64,-22.48 -209.74,-20.07 -210.02,-18.43 -210.56,-16.85 -211.46,-14.60"/>
    </edge>
    <edge id=":v31_3" function="internal">
        <lane id=":v31_3_0" index="0" speed="13.89" length="2.34" shape="-209.64,-22.48 -210.46,-21.29 -211.26,-20.91"/>
    </edge>
    <edge id=":v31_6" function="internal">
        <lane id=":v31_6_0" index="0" speed="13.89" length="2.34" shape="-211.26,-20.91 -212.06,-21.32 -212.84,-22.54"/>
    </edge>
    <edge id=":v31_4" function="internal">
        <lane id=":v31_4_0" index="0" speed="13.89" length="7.03" shape="-214.44,-15.76 -213.66,-17.70 -213.18,-19.06 -212.93,-20.47 -212.84,-22.54"/>
    </edge>
    <edge id=":v31_5" function="internal">
        <lane id=":v31_5_0" index="0" speed="13.89" length="2.34" shape="-214.44,-15.76 -213.25,-16.59 -212.36,-16.67"/>
    </edge>
    <edge id=":v31_7" function="internal">
        <lane id=":v31_7_0" index="0" speed="13.89" length="2.34" shape="-212.36,-16.67 -211.76,-16.01 -211.46,-14.60"/>
    </edge>
    <edge id=":v32_0" function="internal">
        <lane id=":v32_0_0" index="0" speed="13.89" length="8.95" shape="-130.54,-18.18 -131.20,-20.52 -132.45,-22.13 -134.28,-23.03 -136.71,-23.19"/>
    </edge>
    <edge id=":v32_1" function="internal">
        <lane id=":v32_1_0" index="0" speed="13.89" length="10.90" shape="-130.54,-18.18 -131.78,-29.01"/>
    </edge>
    <edge id=":v32_2" function="internal">
        <lane id=":v32_2_0" index="0" speed="13.89" length="13.98" shape="-122.78,-24.44 -136.71,-23.19"/>
    </edge>
    <edge id=":v32_3" function="internal">
        <lane id=":v32_3_0" index="0" speed="13.89" length="11.40" shape="-122.78,-24.44 -126.56,-24.38 -129.31,-25.12 -131.05,-26.67 -131.78,-29.01"/>
    </edge>
    <edge id=":v32_4" function="internal">
        <lane id=":v32_4_0" index="0" speed="13.89" length="11.41" shape="-128.59,-29.26 -128.93,-26.84 -130.40,-25.02 -133.00,-23.80 -136.71,-23.19"/>
    </edge>
    <edge id=":v32_5" function="internal">
        <lane id=":v32_5_0" index="0" speed="13.89" length="4.67" shape="-128.59,-29.26 -129.29,-28.00 -130.06,-27.54 -130.88,-27.87 -131.78,-29.01"/>
    </edge>
    <edge id=":v33_0" function="internal">
        <lane id=":v33_0_0" index="0" speed="13.89" length="7.65" shape="-93.26,-28.95 -94.81,-28.04 -95.92,-26.71 -96.60,-24.93 -96.84,-22.73"/>
    </edge>
    <edge id=":v33_1" function="internal">
        <lane id=":v33_1_0" index="0" speed="13.89" length="8.35" shape="-93.26,-28.95 -95.57,-28.03 -97.17,-27.45 -98.82,-27.07 -101.27,-26.75"/>
    </edge>
    <edge id=":v34_0" function="internal">
        <lane id=":v34_0_0" index="0" speed="13.89" length="9.11" shape="-224.92,19.79 -225.53,22.36 -225.06,24.22 -223.53,25.36 -220.92,25.79"/>
    </edge>
    <edge id=":v34_1" function="internal">
        <lane id=":v34_1_0" index="0" speed="13.89" length="11.96" shape="-224.92,19.79 -226.16,22.84 -227.11,25.40 -227.72,28.01 -227.95,31.26"/>
    </edge>
    <edge id=":v34_2" function="internal">