<configuration>
	<input>
		<net-file value="osm.net.xml"/>
		<route-files value="osm.rou.xml"/>
		<additional-files value="osm.cs.add.xml" />
	</input>
	<output>
        <battery-output value="battery.out.xml"/>
        <battery-output.precision value="4"/>
        <device.battery.probability value="1"/>
        <summary-output value="osm_summary.xml"/>
    </output>
	<processing>
		<time-to-teleport value="-1"/>
	</processing>
</configuration>