<?xml version="1.0" encoding="UTF-8"?>

<!-- generated on 2021-10-30 23:47:24 by Eclipse SUMO netedit Version 1.10.0
<configuration xmlns:xsi="http://www.w3.org/2001/XMLSchema-instance" xsi:noNamespaceSchemaLocation="http://sumo.dlr.de/xsd/netconvertConfiguration.xsd">

    <input>
        <sumo-net-file value="/Users/yunhaowang/Desktop/simulator/sumo/tests/complex/tutorial/manhattan/data/test.net.xml"/>
    </input>

    <output>
        <output-file value="/Users/yunhaowang/Desktop/simulator/sumo/tests/complex/tutorial/manhattan/data/test.net.xml"/>
    </output>

    <processing>
        <geometry.min-radius.fix.railways value="false"/>
        <geometry.max-grade.fix value="false"/>
        <offset.disable-normalization value="true"/>
        <lefthand value="false"/>
    </processing>

    <junctions>
        <no-turnarounds value="true"/>
        <junctions.corner-detail value="5"/>
        <junctions.limit-turn-speed value="5.5"/>
        <rectangular-lane-cut value="false"/>
    </junctions>

    <pedestrian>
        <walkingareas value="false"/>
    </pedestrian>

    <netedit>
        <route-files value="/Users/yunhaowang/Desktop/simulator/sumo/tests/complex/tutorial/manhattan/data/test_demand.rou.xml"/>
    </netedit>

    <report>
        <aggregate-warnings value="5"/>
    </report>

</configuration>
-->

<routes xmlns:xsi="http://www.w3.org/2001/XMLSchema-instance" xsi:noNamespaceSchemaLocation="http://sumo.dlr.de/xsd/routes_file.xsd">
    <trip id="vehicle_0" depart="0.00" from="gneE11" to="gneE1" via="gneE12 gneE13 gneE14 gneE6 gneE3 gneE2 gneE1 gneE4 gneE3 gneE2 gneE1 gneE4 gneE3 gneE2"/>
    <trip id="vehicle_1" depart="0.00" from="gneE15" to="gneE16" via="gneE13 gneE18 gneE17 gneE16 gneE13 gneE18 gneE17"/>
    <trip id="vehicle_10" depart="0.00" from="gneE9" to="gneE1" via="gneE3 gneE4"/>
    <trip id="vehicle_2" depart="0.00" from="gneE14" to="gneE4" via="gneE7 gneE8 gneE9 gneE3 gneE4 gneE1 gneE2 gneE3"/>
    <trip id="vehicle_3" depart="0.00" from="gneE17" to="gneE8" via="gneE19 gneE20 gneE22"/>
    <trip id="vehicle_4" depart="0.00" from="gneE12" to="gneE2" via="gneE13 gneE16 gneE17 gneE19 gneE20 gneE22 gneE8 gneE9 gneE3 gneE4 gneE1"/>
    <trip id="vehicle_5" depart="0.00" from="gneE6" to="gneE3" via="gneE4 gneE1 gneE2"/>
    <trip id="vehicle_6" depart="0.00" from="gneE3" to="gneE2" via="gneE4 gneE1"/>
    <trip id="vehicle_7" depart="0.00" from="gneE4" to="gneE3"/>
    <trip id="vehicle_8" depart="0.00" from="gneE16" to="gneE8" via="gneE21 gneE17 gneE18 gneE13 gneE14 gneE7"/>
    <trip id="vehicle_9" depart="0.00" from="gneE8" to="gneE9"/>
</routes>
