<configuration>
    <input>
       <net-file value="circles.net.xml" />
       <route-files value="circles.rou.xml" />
       <additional-files value="circles.cs.add.xml" />
    </input>
    	<output>
        <battery-output value="battery.out.xml"/>
        <battery-output.precision value="4"/>
        <device.battery.probability value="1"/>
        <summary-output value="circles_summary.xml"/>
    </output>
	<processing>
		<time-to-teleport value="-1"/>
	</processing>
</configuration>